

 ****************************** EPMacro processing begun.


 KRDRD  --> kardi1=   1  KARDI2= 501 KARDX= 502  mTxtP=     0  mStk=     0
      *   1 * !-Generator IDFEditor 1.50
 KRDRD  <-3-  KARDI1=   1  KARDI2=  27  KARDX=   1  KRDNUM=   1 mTxtP =     0  mP=     0  mStk=     0
            .2345678.1.2345678.2.2345678.3.2345678.4.2345678.5.2345678.6.2345678.7.2345678.8.2345678.9.2345678.0
            !-Generator IDFEditor 1.50 
 KRDRD  --> kardi1=   1  KARDI2=  27 KARDX=  28  mTxtP=     0  mStk=     0
      *   2 * !-Option OriginalOrderTop UseSpecialFormat
 KRDRD  <-3-  KARDI1=   1  KARDI2=  43  KARDX=   1  KRDNUM=   2 mTxtP =     0  mP=     0  mStk=     0
            .2345678.1.2345678.2.2345678.3.2345678.4.2345678.5.2345678.6.2345678.7.2345678.8.2345678.9.2345678.0
            !-Option OriginalOrderTop UseSpecialFormat 
 KRDRD  --> kardi1=   1  KARDI2=  43 KARDX=  44  mTxtP=     0  mStk=     0
      *   3 * !-NOTE: All comments with '!-' are ignored by the IDFEditor and are generated automatically.
 KRDRD  <-3-  KARDI1=   1  KARDI2=  93  KARDX=   1  KRDNUM=   3 mTxtP =     0  mP=     0  mStk=     0
            .2345678.1.2345678.2.2345678.3.2345678.4.2345678.5.2345678.6.2345678.7.2345678.8.2345678.9.2345678.0
            !-NOTE: All comments with '!-' are ignored by the IDFEditor and are generated automatically. 
 KRDRD  --> kardi1=   1  KARDI2=  93 KARDX=  94  mTxtP=     0  mStk=     0
      *   4 * !-      Use '!' comments if they need to be retained when using the IDFEditor.
 KRDRD  <-3-  KARDI1=   1  KARDI2=  79  KARDX=   1  KRDNUM=   4 mTxtP =     0  mP=     0  mStk=     0
            .2345678.1.2345678.2.2345678.3.2345678.4.2345678.5.2345678.6.2345678.7.2345678.8.2345678.9.2345678.0
            !-      Use '!' comments if they need to be retained when using the IDFEditor. 
 KRDRD  --> kardi1=   1  KARDI2=  79 KARDX=  80  mTxtP=     0  mStk=     0
      *   5 *
 KRDRD  <-3-  KARDI1=   1  KARDI2=   1  KARDX=   1  KRDNUM=   5 mTxtP =     0  mP=     0  mStk=     0
            .2345678.1.2345678.2.2345678.3.2345678.4.2345678.5.2345678.6.2345678.7.2345678.8.2345678.9.2345678.0
             
 KRDRD  --> kardi1=   1  KARDI2=   1 KARDX=   2  mTxtP=     0  mStk=     0
      *   6 *   Version,8.9 ;
 KRDRD  <-3-  KARDI1=   1  KARDI2=  16  KARDX=   1  KRDNUM=   6 mTxtP =     0  mP=     0  mStk=     0
            .2345678.1.2345678.2.2345678.3.2345678.4.2345678.5.2345678.6.2345678.7.2345678.8.2345678.9.2345678.0
              Version,8.9 ; 
 KRDRD  --> kardi1=   1  KARDI2=  16 KARDX=  17  mTxtP=     0  mStk=     0
      *   7 *
 KRDRD  <-3-  KARDI1=   1  KARDI2=   1  KARDX=   1  KRDNUM=   7 mTxtP =     0  mP=     0  mStk=     0
            .2345678.1.2345678.2.2345678.3.2345678.4.2345678.5.2345678.6.2345678.7.2345678.8.2345678.9.2345678.0
             
 KRDRD  --> kardi1=   1  KARDI2=   1 KARDX=   2  mTxtP=     0  mStk=     0
      *   8 *   SimulationControl,
 KRDRD  <-3-  KARDI1=   1  KARDI2=  21  KARDX=   1  KRDNUM=   8 mTxtP =     0  mP=     0  mStk=     0
            .2345678.1.2345678.2.2345678.3.2345678.4.2345678.5.2345678.6.2345678.7.2345678.8.2345678.9.2345678.0
              SimulationControl, 
 KRDRD  --> kardi1=   1  KARDI2=  21 KARDX=  22  mTxtP=     0  mStk=     0
      *   9 *     Yes,                     !- Do Zone Sizing Calculation
 KRDRD  <-3-  KARDI1=   1  KARDI2=  59  KARDX=   1  KRDNUM=   9 mTxtP =     0  mP=     0  mStk=     0
            .2345678.1.2345678.2.2345678.3.2345678.4.2345678.5.2345678.6.2345678.7.2345678.8.2345678.9.2345678.0
                Yes,                     !- Do Zone Sizing Calculation 
 KRDRD  --> kardi1=   1  KARDI2=  59 KARDX=  60  mTxtP=     0  mStk=     0
      *  10 *     Yes,                     !- Do System Sizing Calculation
 KRDRD  <-3-  KARDI1=   1  KARDI2=  61  KARDX=   1  KRDNUM=  10 mTxtP =     0  mP=     0  mStk=     0
            .2345678.1.2345678.2.2345678.3.2345678.4.2345678.5.2345678.6.2345678.7.2345678.8.2345678.9.2345678.0
                Yes,                     !- Do System Sizing Calculation 
 KRDRD  --> kardi1=   1  KARDI2=  61 KARDX=  62  mTxtP=     0  mStk=     0
      *  11 *     No,                      !- Do Plant Sizing Calculation
 KRDRD  <-3-  KARDI1=   1  KARDI2=  60  KARDX=   1  KRDNUM=  11 mTxtP =     0  mP=     0  mStk=     0
            .2345678.1.2345678.2.2345678.3.2345678.4.2345678.5.2345678.6.2345678.7.2345678.8.2345678.9.2345678.0
                No,                      !- Do Plant Sizing Calculation 
 KRDRD  --> kardi1=   1  KARDI2=  60 KARDX=  61  mTxtP=     0  mStk=     0
      *  12 *     No,                      !- Run Simulation for Sizing Periods
 KRDRD  <-3-  KARDI1=   1  KARDI2=  66  KARDX=   1  KRDNUM=  12 mTxtP =     0  mP=     0  mStk=     0
            .2345678.1.2345678.2.2345678.3.2345678.4.2345678.5.2345678.6.2345678.7.2345678.8.2345678.9.2345678.0
                No,                      !- Run Simulation for Sizing Periods 
 KRDRD  --> kardi1=   1  KARDI2=  66 KARDX=  67  mTxtP=     0  mStk=     0
      *  13 *     Yes;                     !- Run Simulation for Weather File Run Periods
 KRDRD  <-3-  KARDI1=   1  KARDI2=  76  KARDX=   1  KRDNUM=  13 mTxtP =     0  mP=     0  mStk=     0
            .2345678.1.2345678.2.2345678.3.2345678.4.2345678.5.2345678.6.2345678.7.2345678.8.2345678.9.2345678.0
                Yes;                     !- Run Simulation for Weather File Run Periods 
 KRDRD  --> kardi1=   1  KARDI2=  76 KARDX=  77  mTxtP=     0  mStk=     0
      *  14 *
 KRDRD  <-3-  KARDI1=   1  KARDI2=   1  KARDX=   1  KRDNUM=  14 mTxtP =     0  mP=     0  mStk=     0
            .2345678.1.2345678.2.2345678.3.2345678.4.2345678.5.2345678.6.2345678.7.2345678.8.2345678.9.2345678.0
             
 KRDRD  --> kardi1=   1  KARDI2=   1 KARDX=   2  mTxtP=     0  mStk=     0
      *  15 *   Building,
 KRDRD  <-3-  KARDI1=   1  KARDI2=  12  KARDX=   1  KRDNUM=  15 mTxtP =     0  mP=     0  mStk=     0
            .2345678.1.2345678.2.2345678.3.2345678.4.2345678.5.2345678.6.2345678.7.2345678.8.2345678.9.2345678.0
              Building, 
 KRDRD  --> kardi1=   1  KARDI2=  12 KARDX=  13  mTxtP=     0  mStk=     0
      *  16 *     Building,                !- Name
 KRDRD  <-3-  KARDI1=   1  KARDI2=  37  KARDX=   1  KRDNUM=  16 mTxtP =     0  mP=     0  mStk=     0
            .2345678.1.2345678.2.2345678.3.2345678.4.2345678.5.2345678.6.2345678.7.2345678.8.2345678.9.2345678.0
                Building,                !- Name 
 KRDRD  --> kardi1=   1  KARDI2=  37 KARDX=  38  mTxtP=     0  mStk=     0
      *  17 *     92.0,                    !- North Axis {deg}
 KRDRD  <-3-  KARDI1=   1  KARDI2=  49  KARDX=   1  KRDNUM=  17 mTxtP =     0  mP=     0  mStk=     0
            .2345678.1.2345678.2.2345678.3.2345678.4.2345678.5.2345678.6.2345678.7.2345678.8.2345678.9.2345678.0
                92.0,                    !- North Axis {deg} 
 KRDRD  --> kardi1=   1  KARDI2=  49 KARDX=  50  mTxtP=     0  mStk=     0
      *  18 *     City,                    !- Terrain
 KRDRD  <-3-  KARDI1=   1  KARDI2=  40  KARDX=   1  KRDNUM=  18 mTxtP =     0  mP=     0  mStk=     0
            .2345678.1.2345678.2.2345678.3.2345678.4.2345678.5.2345678.6.2345678.7.2345678.8.2345678.9.2345678.0
                City,                    !- Terrain 
 KRDRD  --> kardi1=   1  KARDI2=  40 KARDX=  41  mTxtP=     0  mStk=     0
      *  19 *     0.04,                    !- Loads Convergence Tolerance Value
 KRDRD  <-3-  KARDI1=   1  KARDI2=  66  KARDX=   1  KRDNUM=  19 mTxtP =     0  mP=     0  mStk=     0
            .2345678.1.2345678.2.2345678.3.2345678.4.2345678.5.2345678.6.2345678.7.2345678.8.2345678.9.2345678.0
                0.04,                    !- Loads Convergence Tolerance Value 
 KRDRD  --> kardi1=   1  KARDI2=  66 KARDX=  67  mTxtP=     0  mStk=     0
      *  20 *     0.4,                     !- Temperature Convergence Tolerance Value {deltaC}
 KRDRD  <-3-  KARDI1=   1  KARDI2=  81  KARDX=   1  KRDNUM=  20 mTxtP =     0  mP=     0  mStk=     0
            .2345678.1.2345678.2.2345678.3.2345678.4.2345678.5.2345678.6.2345678.7.2345678.8.2345678.9.2345678.0
                0.4,                     !- Temperature Convergence Tolerance Value {deltaC} 
 KRDRD  --> kardi1=   1  KARDI2=  81 KARDX=  82  mTxtP=     0  mStk=     0
      *  21 *     FullExteriorWithReflections,  !- Solar Distribution
 KRDRD  <-3-  KARDI1=   1  KARDI2=  56  KARDX=   1  KRDNUM=  21 mTxtP =     0  mP=     0  mStk=     0
            .2345678.1.2345678.2.2345678.3.2345678.4.2345678.5.2345678.6.2345678.7.2345678.8.2345678.9.2345678.0
                FullExteriorWithReflections,  !- Solar Distribution 
 KRDRD  --> kardi1=   1  KARDI2=  56 KARDX=  57  mTxtP=     0  mStk=     0
      *  22 *     25,                      !- Maximum Number of Warmup Days
 KRDRD  <-3-  KARDI1=   1  KARDI2=  62  KARDX=   1  KRDNUM=  22 mTxtP =     0  mP=     0  mStk=     0
            .2345678.1.2345678.2.2345678.3.2345678.4.2345678.5.2345678.6.2345678.7.2345678.8.2345678.9.2345678.0
                25,                      !- Maximum Number of Warmup Days 
 KRDRD  --> kardi1=   1  KARDI2=  62 KARDX=  63  mTxtP=     0  mStk=     0
      *  23 *     6;                       !- Minimum Number of Warmup Days
 KRDRD  <-3-  KARDI1=   1  KARDI2=  62  KARDX=   1  KRDNUM=  23 mTxtP =     0  mP=     0  mStk=     0
            .2345678.1.2345678.2.2345678.3.2345678.4.2345678.5.2345678.6.2345678.7.2345678.8.2345678.9.2345678.0
                6;                       !- Minimum Number of Warmup Days 
 KRDRD  --> kardi1=   1  KARDI2=  62 KARDX=  63  mTxtP=     0  mStk=     0
      *  24 *
 KRDRD  <-3-  KARDI1=   1  KARDI2=   1  KARDX=   1  KRDNUM=  24 mTxtP =     0  mP=     0  mStk=     0
            .2345678.1.2345678.2.2345678.3.2345678.4.2345678.5.2345678.6.2345678.7.2345678.8.2345678.9.2345678.0
             
 KRDRD  --> kardi1=   1  KARDI2=   1 KARDX=   2  mTxtP=     0  mStk=     0
      *  25 *   ShadowCalculation,
 KRDRD  <-3-  KARDI1=   1  KARDI2=  21  KARDX=   1  KRDNUM=  25 mTxtP =     0  mP=     0  mStk=     0
            .2345678.1.2345678.2.2345678.3.2345678.4.2345678.5.2345678.6.2345678.7.2345678.8.2345678.9.2345678.0
              ShadowCalculation, 
 KRDRD  --> kardi1=   1  KARDI2=  21 KARDX=  22  mTxtP=     0  mStk=     0
      *  26 *     AverageOverDaysInFrequency,  !- Calculation Method
 KRDRD  <-3-  KARDI1=   1  KARDI2=  55  KARDX=   1  KRDNUM=  26 mTxtP =     0  mP=     0  mStk=     0
            .2345678.1.2345678.2.2345678.3.2345678.4.2345678.5.2345678.6.2345678.7.2345678.8.2345678.9.2345678.0
                AverageOverDaysInFrequency,  !- Calculation Method 
 KRDRD  --> kardi1=   1  KARDI2=  55 KARDX=  56  mTxtP=     0  mStk=     0
      *  27 *     20,                      !- Calculation Frequency
 KRDRD  <-3-  KARDI1=   1  KARDI2=  54  KARDX=   1  KRDNUM=  27 mTxtP =     0  mP=     0  mStk=     0
            .2345678.1.2345678.2.2345678.3.2345678.4.2345678.5.2345678.6.2345678.7.2345678.8.2345678.9.2345678.0
                20,                      !- Calculation Frequency 
 KRDRD  --> kardi1=   1  KARDI2=  54 KARDX=  55  mTxtP=     0  mStk=     0
      *  28 *     15000,                   !- Maximum Figures in Shadow Overlap Calculations
 KRDRD  <-3-  KARDI1=   1  KARDI2=  79  KARDX=   1  KRDNUM=  28 mTxtP =     0  mP=     0  mStk=     0
            .2345678.1.2345678.2.2345678.3.2345678.4.2345678.5.2345678.6.2345678.7.2345678.8.2345678.9.2345678.0
                15000,                   !- Maximum Figures in Shadow Overlap Calculations 
 KRDRD  --> kardi1=   1  KARDI2=  79 KARDX=  80  mTxtP=     0  mStk=     0
      *  29 *     SutherlandHodgman,       !- Polygon Clipping Algorithm
 KRDRD  <-3-  KARDI1=   1  KARDI2=  59  KARDX=   1  KRDNUM=  29 mTxtP =     0  mP=     0  mStk=     0
            .2345678.1.2345678.2.2345678.3.2345678.4.2345678.5.2345678.6.2345678.7.2345678.8.2345678.9.2345678.0
                SutherlandHodgman,       !- Polygon Clipping Algorithm 
 KRDRD  --> kardi1=   1  KARDI2=  59 KARDX=  60  mTxtP=     0  mStk=     0
      *  30 *     SimpleSkyDiffuseModeling,!- Sky Diffuse Modeling Algorithm
 KRDRD  <-3-  KARDI1=   1  KARDI2=  63  KARDX=   1  KRDNUM=  30 mTxtP =     0  mP=     0  mStk=     0
            .2345678.1.2345678.2.2345678.3.2345678.4.2345678.5.2345678.6.2345678.7.2345678.8.2345678.9.2345678.0
                SimpleSkyDiffuseModeling,!- Sky Diffuse Modeling Algorithm 
 KRDRD  --> kardi1=   1  KARDI2=  63 KARDX=  64  mTxtP=     0  mStk=     0
      *  31 *     InternalCalculation;     !- External Shading Calculation Method
 KRDRD  <-3-  KARDI1=   1  KARDI2=  68  KARDX=   1  KRDNUM=  31 mTxtP =     0  mP=     0  mStk=     0
            .2345678.1.2345678.2.2345678.3.2345678.4.2345678.5.2345678.6.2345678.7.2345678.8.2345678.9.2345678.0
                InternalCalculation;     !- External Shading Calculation Method 
 KRDRD  --> kardi1=   1  KARDI2=  68 KARDX=  69  mTxtP=     0  mStk=     0
      *  32 *
 KRDRD  <-3-  KARDI1=   1  KARDI2=   1  KARDX=   1  KRDNUM=  32 mTxtP =     0  mP=     0  mStk=     0
            .2345678.1.2345678.2.2345678.3.2345678.4.2345678.5.2345678.6.2345678.7.2345678.8.2345678.9.2345678.0
             
 KRDRD  --> kardi1=   1  KARDI2=   1 KARDX=   2  mTxtP=     0  mStk=     0
      *  33 *   SurfaceConvectionAlgorithm:Inside,CeilingDiffuser ;
 KRDRD  <-3-  KARDI1=   1  KARDI2=  54  KARDX=   1  KRDNUM=  33 mTxtP =     0  mP=     0  mStk=     0
            .2345678.1.2345678.2.2345678.3.2345678.4.2345678.5.2345678.6.2345678.7.2345678.8.2345678.9.2345678.0
              SurfaceConvectionAlgorithm:Inside,CeilingDiffuser ; 
 KRDRD  --> kardi1=   1  KARDI2=  54 KARDX=  55  mTxtP=     0  mStk=     0
      *  34 *
 KRDRD  <-3-  KARDI1=   1  KARDI2=   1  KARDX=   1  KRDNUM=  34 mTxtP =     0  mP=     0  mStk=     0
            .2345678.1.2345678.2.2345678.3.2345678.4.2345678.5.2345678.6.2345678.7.2345678.8.2345678.9.2345678.0
             
 KRDRD  --> kardi1=   1  KARDI2=   1 KARDX=   2  mTxtP=     0  mStk=     0
      *  35 *   SurfaceConvectionAlgorithm:Outside,DOE-2 ;
 KRDRD  <-3-  KARDI1=   1  KARDI2=  45  KARDX=   1  KRDNUM=  35 mTxtP =     0  mP=     0  mStk=     0
            .2345678.1.2345678.2.2345678.3.2345678.4.2345678.5.2345678.6.2345678.7.2345678.8.2345678.9.2345678.0
              SurfaceConvectionAlgorithm:Outside,DOE-2 ; 
 KRDRD  --> kardi1=   1  KARDI2=  45 KARDX=  46  mTxtP=     0  mStk=     0
      *  36 *
 KRDRD  <-3-  KARDI1=   1  KARDI2=   1  KARDX=   1  KRDNUM=  36 mTxtP =     0  mP=     0  mStk=     0
            .2345678.1.2345678.2.2345678.3.2345678.4.2345678.5.2345678.6.2345678.7.2345678.8.2345678.9.2345678.0
             
 KRDRD  --> kardi1=   1  KARDI2=   1 KARDX=   2  mTxtP=     0  mStk=     0
      *  37 *   HeatBalanceAlgorithm,ConductionFiniteDifference,2000.0,0.00000001,1000 ;
 KRDRD  <-3-  KARDI1=   1  KARDI2=  75  KARDX=   1  KRDNUM=  37 mTxtP =     0  mP=     0  mStk=     0
            .2345678.1.2345678.2.2345678.3.2345678.4.2345678.5.2345678.6.2345678.7.2345678.8.2345678.9.2345678.0
              HeatBalanceAlgorithm,ConductionFiniteDifference,2000.0,0.00000001,1000 ; 
 KRDRD  --> kardi1=   1  KARDI2=  75 KARDX=  76  mTxtP=     0  mStk=     0
      *  38 *
 KRDRD  <-3-  KARDI1=   1  KARDI2=   1  KARDX=   1  KRDNUM=  38 mTxtP =     0  mP=     0  mStk=     0
            .2345678.1.2345678.2.2345678.3.2345678.4.2345678.5.2345678.6.2345678.7.2345678.8.2345678.9.2345678.0
             
 KRDRD  --> kardi1=   1  KARDI2=   1 KARDX=   2  mTxtP=     0  mStk=     0
      *  39 *   ZoneCapacitanceMultiplier:ResearchSpecial,
 KRDRD  <-3-  KARDI1=   1  KARDI2=  45  KARDX=   1  KRDNUM=  39 mTxtP =     0  mP=     0  mStk=     0
            .2345678.1.2345678.2.2345678.3.2345678.4.2345678.5.2345678.6.2345678.7.2345678.8.2345678.9.2345678.0
              ZoneCapacitanceMultiplier:ResearchSpecial, 
 KRDRD  --> kardi1=   1  KARDI2=  45 KARDX=  46  mTxtP=     0  mStk=     0
      *  40 *     Multiplier,              !- Name
 KRDRD  <-3-  KARDI1=   1  KARDI2=  37  KARDX=   1  KRDNUM=  40 mTxtP =     0  mP=     0  mStk=     0
            .2345678.1.2345678.2.2345678.3.2345678.4.2345678.5.2345678.6.2345678.7.2345678.8.2345678.9.2345678.0
                Multiplier,              !- Name 
 KRDRD  --> kardi1=   1  KARDI2=  37 KARDX=  38  mTxtP=     0  mStk=     0
      *  41 *     ,                        !- Zone or ZoneList Name
 KRDRD  <-3-  KARDI1=   1  KARDI2=  54  KARDX=   1  KRDNUM=  41 mTxtP =     0  mP=     0  mStk=     0
            .2345678.1.2345678.2.2345678.3.2345678.4.2345678.5.2345678.6.2345678.7.2345678.8.2345678.9.2345678.0
                ,                        !- Zone or ZoneList Name 
 KRDRD  --> kardi1=   1  KARDI2=  54 KARDX=  55  mTxtP=     0  mStk=     0
      *  42 *     1.0,                     !- Temperature Capacity Multiplier
 KRDRD  <-3-  KARDI1=   1  KARDI2=  64  KARDX=   1  KRDNUM=  42 mTxtP =     0  mP=     0  mStk=     0
            .2345678.1.2345678.2.2345678.3.2345678.4.2345678.5.2345678.6.2345678.7.2345678.8.2345678.9.2345678.0
                1.0,                     !- Temperature Capacity Multiplier 
 KRDRD  --> kardi1=   1  KARDI2=  64 KARDX=  65  mTxtP=     0  mStk=     0
      *  43 *     1.0,                     !- Humidity Capacity Multiplier
 KRDRD  <-3-  KARDI1=   1  KARDI2=  61  KARDX=   1  KRDNUM=  43 mTxtP =     0  mP=     0  mStk=     0
            .2345678.1.2345678.2.2345678.3.2345678.4.2345678.5.2345678.6.2345678.7.2345678.8.2345678.9.2345678.0
                1.0,                     !- Humidity Capacity Multiplier 
 KRDRD  --> kardi1=   1  KARDI2=  61 KARDX=  62  mTxtP=     0  mStk=     0
      *  44 *     1.0,                     !- Carbon Dioxide Capacity Multiplier
 KRDRD  <-3-  KARDI1=   1  KARDI2=  67  KARDX=   1  KRDNUM=  44 mTxtP =     0  mP=     0  mStk=     0
            .2345678.1.2345678.2.2345678.3.2345678.4.2345678.5.2345678.6.2345678.7.2345678.8.2345678.9.2345678.0
                1.0,                     !- Carbon Dioxide Capacity Multiplier 
 KRDRD  --> kardi1=   1  KARDI2=  67 KARDX=  68  mTxtP=     0  mStk=     0
      *  45 *     1.0;                     !- Generic Contaminant Capacity Multiplier
 KRDRD  <-3-  KARDI1=   1  KARDI2=  72  KARDX=   1  KRDNUM=  45 mTxtP =     0  mP=     0  mStk=     0
            .2345678.1.2345678.2.2345678.3.2345678.4.2345678.5.2345678.6.2345678.7.2345678.8.2345678.9.2345678.0
                1.0;                     !- Generic Contaminant Capacity Multiplier 
 KRDRD  --> kardi1=   1  KARDI2=  72 KARDX=  73  mTxtP=     0  mStk=     0
      *  46 *
 KRDRD  <-3-  KARDI1=   1  KARDI2=   1  KARDX=   1  KRDNUM=  46 mTxtP =     0  mP=     0  mStk=     0
            .2345678.1.2345678.2.2345678.3.2345678.4.2345678.5.2345678.6.2345678.7.2345678.8.2345678.9.2345678.0
             
 KRDRD  --> kardi1=   1  KARDI2=   1 KARDX=   2  mTxtP=     0  mStk=     0
      *  47 *   Timestep,6 ;
 KRDRD  <-3-  KARDI1=   1  KARDI2=  15  KARDX=   1  KRDNUM=  47 mTxtP =     0  mP=     0  mStk=     0
            .2345678.1.2345678.2.2345678.3.2345678.4.2345678.5.2345678.6.2345678.7.2345678.8.2345678.9.2345678.0
              Timestep,6 ; 
 KRDRD  --> kardi1=   1  KARDI2=  15 KARDX=  16  mTxtP=     0  mStk=     0
      *  48 *
 KRDRD  <-3-  KARDI1=   1  KARDI2=   1  KARDX=   1  KRDNUM=  48 mTxtP =     0  mP=     0  mStk=     0
            .2345678.1.2345678.2.2345678.3.2345678.4.2345678.5.2345678.6.2345678.7.2345678.8.2345678.9.2345678.0
             
 KRDRD  --> kardi1=   1  KARDI2=   1 KARDX=   2  mTxtP=     0  mStk=     0
      *  49 *   ConvergenceLimits,
 KRDRD  <-3-  KARDI1=   1  KARDI2=  21  KARDX=   1  KRDNUM=  49 mTxtP =     0  mP=     0  mStk=     0
            .2345678.1.2345678.2.2345678.3.2345678.4.2345678.5.2345678.6.2345678.7.2345678.8.2345678.9.2345678.0
              ConvergenceLimits, 
 KRDRD  --> kardi1=   1  KARDI2=  21 KARDX=  22  mTxtP=     0  mStk=     0
      *  50 *     1,                       !- Minimum System Timestep {minutes}
 KRDRD  <-3-  KARDI1=   1  KARDI2=  66  KARDX=   1  KRDNUM=  50 mTxtP =     0  mP=     0  mStk=     0
            .2345678.1.2345678.2.2345678.3.2345678.4.2345678.5.2345678.6.2345678.7.2345678.8.2345678.9.2345678.0
                1,                       !- Minimum System Timestep {minutes} 
 KRDRD  --> kardi1=   1  KARDI2=  66 KARDX=  67  mTxtP=     0  mStk=     0
      *  51 *     25;                      !- Maximum HVAC Iterations
 KRDRD  <-3-  KARDI1=   1  KARDI2=  56  KARDX=   1  KRDNUM=  51 mTxtP =     0  mP=     0  mStk=     0
            .2345678.1.2345678.2.2345678.3.2345678.4.2345678.5.2345678.6.2345678.7.2345678.8.2345678.9.2345678.0
                25;                      !- Maximum HVAC Iterations 
 KRDRD  --> kardi1=   1  KARDI2=  56 KARDX=  57  mTxtP=     0  mStk=     0
      *  52 *
 KRDRD  <-3-  KARDI1=   1  KARDI2=   1  KARDX=   1  KRDNUM=  52 mTxtP =     0  mP=     0  mStk=     0
            .2345678.1.2345678.2.2345678.3.2345678.4.2345678.5.2345678.6.2345678.7.2345678.8.2345678.9.2345678.0
             
 KRDRD  --> kardi1=   1  KARDI2=   1 KARDX=   2  mTxtP=     0  mStk=     0
      *  53 *   Site:Location,
 KRDRD  <-3-  KARDI1=   1  KARDI2=  17  KARDX=   1  KRDNUM=  53 mTxtP =     0  mP=     0  mStk=     0
            .2345678.1.2345678.2.2345678.3.2345678.4.2345678.5.2345678.6.2345678.7.2345678.8.2345678.9.2345678.0
              Site:Location, 
 KRDRD  --> kardi1=   1  KARDI2=  17 KARDX=  18  mTxtP=     0  mStk=     0
      *  54 *     Inovo TEST (01-05:20-06)  (01-05:20-06),  !- Name
 KRDRD  <-3-  KARDI1=   1  KARDI2=  54  KARDX=   1  KRDNUM=  54 mTxtP =     0  mP=     0  mStk=     0
            .2345678.1.2345678.2.2345678.3.2345678.4.2345678.5.2345678.6.2345678.7.2345678.8.2345678.9.2345678.0
                Inovo TEST (01-05:20-06)  (01-05:20-06),  !- Name 
 KRDRD  --> kardi1=   1  KARDI2=  54 KARDX=  55  mTxtP=     0  mStk=     0
      *  55 *     55.87,                   !- Latitude {deg}
 KRDRD  <-3-  KARDI1=   1  KARDI2=  47  KARDX=   1  KRDNUM=  55 mTxtP =     0  mP=     0  mStk=     0
            .2345678.1.2345678.2.2345678.3.2345678.4.2345678.5.2345678.6.2345678.7.2345678.8.2345678.9.2345678.0
                55.87,                   !- Latitude {deg} 
 KRDRD  --> kardi1=   1  KARDI2=  47 KARDX=  48  mTxtP=     0  mStk=     0
      *  56 *     -4.43,                   !- Longitude {deg}
 KRDRD  <-3-  KARDI1=   1  KARDI2=  48  KARDX=   1  KRDNUM=  56 mTxtP =     0  mP=     0  mStk=     0
            .2345678.1.2345678.2.2345678.3.2345678.4.2345678.5.2345678.6.2345678.7.2345678.8.2345678.9.2345678.0
                -4.43,                   !- Longitude {deg} 
 KRDRD  --> kardi1=   1  KARDI2=  48 KARDX=  49  mTxtP=     0  mStk=     0
      *  57 *     0.0,                     !- Time Zone {hr}
 KRDRD  <-3-  KARDI1=   1  KARDI2=  47  KARDX=   1  KRDNUM=  57 mTxtP =     0  mP=     0  mStk=     0
            .2345678.1.2345678.2.2345678.3.2345678.4.2345678.5.2345678.6.2345678.7.2345678.8.2345678.9.2345678.0
                0.0,                     !- Time Zone {hr} 
 KRDRD  --> kardi1=   1  KARDI2=  47 KARDX=  48  mTxtP=     0  mStk=     0
      *  58 *     8.0;                     !- Elevation {m}
 KRDRD  <-3-  KARDI1=   1  KARDI2=  46  KARDX=   1  KRDNUM=  58 mTxtP =     0  mP=     0  mStk=     0
            .2345678.1.2345678.2.2345678.3.2345678.4.2345678.5.2345678.6.2345678.7.2345678.8.2345678.9.2345678.0
                8.0;                     !- Elevation {m} 
 KRDRD  --> kardi1=   1  KARDI2=  46 KARDX=  47  mTxtP=     0  mStk=     0
      *  59 *
 KRDRD  <-3-  KARDI1=   1  KARDI2=   1  KARDX=   1  KRDNUM=  59 mTxtP =     0  mP=     0  mStk=     0
            .2345678.1.2345678.2.2345678.3.2345678.4.2345678.5.2345678.6.2345678.7.2345678.8.2345678.9.2345678.0
             
 KRDRD  --> kardi1=   1  KARDI2=   1 KARDX=   2  mTxtP=     0  mStk=     0
      *  60 *   SizingPeriod:DesignDay,
 KRDRD  <-3-  KARDI1=   1  KARDI2=  26  KARDX=   1  KRDNUM=  60 mTxtP =     0  mP=     0  mStk=     0
            .2345678.1.2345678.2.2345678.3.2345678.4.2345678.5.2345678.6.2345678.7.2345678.8.2345678.9.2345678.0
              SizingPeriod:DesignDay, 
 KRDRD  --> kardi1=   1  KARDI2=  26 KARDX=  27  mTxtP=     0  mStk=     0
      *  61 *     Summer Design Day in Inovo TEST (01-05:20-06) Jul,  !- Name
 KRDRD  <-3-  KARDI1=   1  KARDI2=  64  KARDX=   1  KRDNUM=  61 mTxtP =     0  mP=     0  mStk=     0
            .2345678.1.2345678.2.2345678.3.2345678.4.2345678.5.2345678.6.2345678.7.2345678.8.2345678.9.2345678.0
                Summer Design Day in Inovo TEST (01-05:20-06) Jul,  !- Name 
 KRDRD  --> kardi1=   1  KARDI2=  64 KARDX=  65  mTxtP=     0  mStk=     0
      *  62 *     7,                       !- Month
 KRDRD  <-3-  KARDI1=   1  KARDI2=  38  KARDX=   1  KRDNUM=  62 mTxtP =     0  mP=     0  mStk=     0
            .2345678.1.2345678.2.2345678.3.2345678.4.2345678.5.2345678.6.2345678.7.2345678.8.2345678.9.2345678.0
                7,                       !- Month 
 KRDRD  --> kardi1=   1  KARDI2=  38 KARDX=  39  mTxtP=     0  mStk=     0
      *  63 *     15,                      !- Day of Month
 KRDRD  <-3-  KARDI1=   1  KARDI2=  45  KARDX=   1  KRDNUM=  63 mTxtP =     0  mP=     0  mStk=     0
            .2345678.1.2345678.2.2345678.3.2345678.4.2345678.5.2345678.6.2345678.7.2345678.8.2345678.9.2345678.0
                15,                      !- Day of Month 
 KRDRD  --> kardi1=   1  KARDI2=  45 KARDX=  46  mTxtP=     0  mStk=     0
      *  64 *     SummerDesignDay,         !- Day Type
 KRDRD  <-3-  KARDI1=   1  KARDI2=  41  KARDX=   1  KRDNUM=  64 mTxtP =     0  mP=     0  mStk=     0
            .2345678.1.2345678.2.2345678.3.2345678.4.2345678.5.2345678.6.2345678.7.2345678.8.2345678.9.2345678.0
                SummerDesignDay,         !- Day Type 
 KRDRD  --> kardi1=   1  KARDI2=  41 KARDX=  42  mTxtP=     0  mStk=     0
      *  65 *     23.1,                    !- Maximum Dry-Bulb Temperature {C}
 KRDRD  <-3-  KARDI1=   1  KARDI2=  65  KARDX=   1  KRDNUM=  65 mTxtP =     0  mP=     0  mStk=     0
            .2345678.1.2345678.2.2345678.3.2345678.4.2345678.5.2345678.6.2345678.7.2345678.8.2345678.9.2345678.0
                23.1,                    !- Maximum Dry-Bulb Temperature {C} 
 KRDRD  --> kardi1=   1  KARDI2=  65 KARDX=  66  mTxtP=     0  mStk=     0
      *  66 *     7.7,                     !- Daily Dry-Bulb Temperature Range {deltaC}
 KRDRD  <-3-  KARDI1=   1  KARDI2=  74  KARDX=   1  KRDNUM=  66 mTxtP =     0  mP=     0  mStk=     0
            .2345678.1.2345678.2.2345678.3.2345678.4.2345678.5.2345678.6.2345678.7.2345678.8.2345678.9.2345678.0
                7.7,                     !- Daily Dry-Bulb Temperature Range {deltaC} 
 KRDRD  --> kardi1=   1  KARDI2=  74 KARDX=  75  mTxtP=     0  mStk=     0
      *  67 *     ,                        !- Dry-Bulb Temperature Range Modifier Type
 KRDRD  <-3-  KARDI1=   1  KARDI2=  73  KARDX=   1  KRDNUM=  67 mTxtP =     0  mP=     0  mStk=     0
            .2345678.1.2345678.2.2345678.3.2345678.4.2345678.5.2345678.6.2345678.7.2345678.8.2345678.9.2345678.0
                ,                        !- Dry-Bulb Temperature Range Modifier Type 
 KRDRD  --> kardi1=   1  KARDI2=  73 KARDX=  74  mTxtP=     0  mStk=     0
      *  68 *     ,                        !- Dry-Bulb Temperature Range Modifier Day Schedule Name
 KRDRD  <-3-  KARDI1=   1  KARDI2=  86  KARDX=   1  KRDNUM=  68 mTxtP =     0  mP=     0  mStk=     0
            .2345678.1.2345678.2.2345678.3.2345678.4.2345678.5.2345678.6.2345678.7.2345678.8.2345678.9.2345678.0
                ,                        !- Dry-Bulb Temperature Range Modifier Day Schedule Name 
 KRDRD  --> kardi1=   1  KARDI2=  86 KARDX=  87  mTxtP=     0  mStk=     0
      *  69 *     WetBulb,                 !- Humidity Condition Type
 KRDRD  <-3-  KARDI1=   1  KARDI2=  56  KARDX=   1  KRDNUM=  69 mTxtP =     0  mP=     0  mStk=     0
            .2345678.1.2345678.2.2345678.3.2345678.4.2345678.5.2345678.6.2345678.7.2345678.8.2345678.9.2345678.0
                WetBulb,                 !- Humidity Condition Type 
 KRDRD  --> kardi1=   1  KARDI2=  56 KARDX=  57  mTxtP=     0  mStk=     0
      *  70 *     17.1,                    !- Wetbulb or DewPoint at Maximum Dry-Bulb {C}
 KRDRD  <-3-  KARDI1=   1  KARDI2=  76  KARDX=   1  KRDNUM=  70 mTxtP =     0  mP=     0  mStk=     0
            .2345678.1.2345678.2.2345678.3.2345678.4.2345678.5.2345678.6.2345678.7.2345678.8.2345678.9.2345678.0
                17.1,                    !- Wetbulb or DewPoint at Maximum Dry-Bulb {C} 
 KRDRD  --> kardi1=   1  KARDI2=  76 KARDX=  77  mTxtP=     0  mStk=     0
      *  71 *     ,                        !- Humidity Condition Day Schedule Name
 KRDRD  <-3-  KARDI1=   1  KARDI2=  69  KARDX=   1  KRDNUM=  71 mTxtP =     0  mP=     0  mStk=     0
            .2345678.1.2345678.2.2345678.3.2345678.4.2345678.5.2345678.6.2345678.7.2345678.8.2345678.9.2345678.0
                ,                        !- Humidity Condition Day Schedule Name 
 KRDRD  --> kardi1=   1  KARDI2=  69 KARDX=  70  mTxtP=     0  mStk=     0
      *  72 *     ,                        !- Humidity Ratio at Maximum Dry-Bulb {kgWater/kgDryAir}
 KRDRD  <-3-  KARDI1=   1  KARDI2=  86  KARDX=   1  KRDNUM=  72 mTxtP =     0  mP=     0  mStk=     0
            .2345678.1.2345678.2.2345678.3.2345678.4.2345678.5.2345678.6.2345678.7.2345678.8.2345678.9.2345678.0
                ,                        !- Humidity Ratio at Maximum Dry-Bulb {kgWater/kgDryAir} 
 KRDRD  --> kardi1=   1  KARDI2=  86 KARDX=  87  mTxtP=     0  mStk=     0
      *  73 *     ,                        !- Enthalpy at Maximum Dry-Bulb {J/kg}
 KRDRD  <-3-  KARDI1=   1  KARDI2=  68  KARDX=   1  KRDNUM=  73 mTxtP =     0  mP=     0  mStk=     0
            .2345678.1.2345678.2.2345678.3.2345678.4.2345678.5.2345678.6.2345678.7.2345678.8.2345678.9.2345678.0
                ,                        !- Enthalpy at Maximum Dry-Bulb {J/kg} 
 KRDRD  --> kardi1=   1  KARDI2=  68 KARDX=  69  mTxtP=     0  mStk=     0