

 ****************************** EPMacro processing begun.


 KRDRD  --> kardi1=   1  KARDI2= 501 KARDX= 502  mTxtP=     0  mStk=     0
      *   1 * !-Generator IDFEditor 1.50
 KRDRD  <-3-  KARDI1=   1  KARDI2=  27  KARDX=   1  KRDNUM=   1 mTxtP =     0  mP=     0  mStk=     0
            .2345678.1.2345678.2.2345678.3.2345678.4.2345678.5.2345678.6.2345678.7.2345678.8.2345678.9.2345678.0
            !-Generator IDFEditor 1.50 
 KRDRD  --> kardi1=   1  KARDI2=  27 KARDX=  28  mTxtP=     0  mStk=     0
      *   2 * !-Option OriginalOrderTop UseSpecialFormat
 KRDRD  <-3-  KARDI1=   1  KARDI2=  43  KARDX=   1  KRDNUM=   2 mTxtP =     0  mP=     0  mStk=     0
            .2345678.1.2345678.2.2345678.3.2345678.4.2345678.5.2345678.6.2345678.7.2345678.8.2345678.9.2345678.0
            !-Option OriginalOrderTop UseSpecialFormat 
 KRDRD  --> kardi1=   1  KARDI2=  43 KARDX=  44  mTxtP=     0  mStk=     0
      *   3 * !-NOTE: All comments with '!-' are ignored by the IDFEditor and are generated automatically.
 KRDRD  <-3-  KARDI1=   1  KARDI2=  93  KARDX=   1  KRDNUM=   3 mTxtP =     0  mP=     0  mStk=     0
            .2345678.1.2345678.2.2345678.3.2345678.4.2345678.5.2345678.6.2345678.7.2345678.8.2345678.9.2345678.0
            !-NOTE: All comments with '!-' are ignored by the IDFEditor and are generated automatically. 
 KRDRD  --> kardi1=   1  KARDI2=  93 KARDX=  94  mTxtP=     0  mStk=     0
      *   4 * !-      Use '!' comments if they need to be retained when using the IDFEditor.
 KRDRD  <-3-  KARDI1=   1  KARDI2=  79  KARDX=   1  KRDNUM=   4 mTxtP =     0  mP=     0  mStk=     0
            .2345678.1.2345678.2.2345678.3.2345678.4.2345678.5.2345678.6.2345678.7.2345678.8.2345678.9.2345678.0
            !-      Use '!' comments if they need to be retained when using the IDFEditor. 
 KRDRD  --> kardi1=   1  KARDI2=  79 KARDX=  80  mTxtP=     0  mStk=     0
      *   5 *
 KRDRD  <-3-  KARDI1=   1  KARDI2=   1  KARDX=   1  KRDNUM=   5 mTxtP =     0  mP=     0  mStk=     0
            .2345678.1.2345678.2.2345678.3.2345678.4.2345678.5.2345678.6.2345678.7.2345678.8.2345678.9.2345678.0
             
 KRDRD  --> kardi1=   1  KARDI2=   1 KARDX=   2  mTxtP=     0  mStk=     0
      *   6 *   Output:Variable,*,Zone Total Internal Total Heating Energy,Timestep,On ;
 KRDRD  <-3-  KARDI1=   1  KARDI2=  75  KARDX=   1  KRDNUM=   6 mTxtP =     0  mP=     0  mStk=     0
            .2345678.1.2345678.2.2345678.3.2345678.4.2345678.5.2345678.6.2345678.7.2345678.8.2345678.9.2345678.0
              Output:Variable,*,Zone Total Internal Total Heating Energy,Timestep,On ; 
 KRDRD  --> kardi1=   1  KARDI2=  75 KARDX=  76  mTxtP=     0  mStk=     0
      *   7 *
 KRDRD  <-3-  KARDI1=   1  KARDI2=   1  KARDX=   1  KRDNUM=   7 mTxtP =     0  mP=     0  mStk=     0
            .2345678.1.2345678.2.2345678.3.2345678.4.2345678.5.2345678.6.2345678.7.2345678.8.2345678.9.2345678.0
             
 KRDRD  --> kardi1=   1  KARDI2=   1 KARDX=   2  mTxtP=     0  mStk=     0
      *   8 * ! AdultEducationCenter
 KRDRD  <-3-  KARDI1=   1  KARDI2=  23  KARDX=   1  KRDNUM=   8 mTxtP =     0  mP=     0  mStk=     0
            .2345678.1.2345678.2.2345678.3.2345678.4.2345678.5.2345678.6.2345678.7.2345678.8.2345678.9.2345678.0
            ! AdultEducationCenter 
 KRDRD  --> kardi1=   1  KARDI2=  23 KARDX=  24  mTxtP=     0  mStk=     0
      *   9 * ! Basic file description: Simple one zone model of building.
 KRDRD  <-3-  KARDI1=   1  KARDI2=  61  KARDX=   1  KRDNUM=   9 mTxtP =     0  mP=     0  mStk=     0
            .2345678.1.2345678.2.2345678.3.2345678.4.2345678.5.2345678.6.2345678.7.2345678.8.2345678.9.2345678.0
            ! Basic file description: Simple one zone model of building. 
 KRDRD  --> kardi1=   1  KARDI2=  61 KARDX=  62  mTxtP=     0  mStk=     0
      *  10 * !
 KRDRD  <-3-  KARDI1=   1  KARDI2=   2  KARDX=   1  KRDNUM=  10 mTxtP =     0  mP=     0  mStk=     0
            .2345678.1.2345678.2.2345678.3.2345678.4.2345678.5.2345678.6.2345678.7.2345678.8.2345678.9.2345678.0
            ! 
 KRDRD  --> kardi1=   1  KARDI2=   2 KARDX=   3  mTxtP=     0  mStk=     0
      *  11 * ! Highlights:  Illustration of using a 1 zone model to create energy calculations
 KRDRD  <-3-  KARDI1=   1  KARDI2=  82  KARDX=   1  KRDNUM=  11 mTxtP =     0  mP=     0  mStk=     0
            .2345678.1.2345678.2.2345678.3.2345678.4.2345678.5.2345678.6.2345678.7.2345678.8.2345678.9.2345678.0
            ! Highlights:  Illustration of using a 1 zone model to create energy calculations 
 KRDRD  --> kardi1=   1  KARDI2=  82 KARDX=  83  mTxtP=     0  mStk=     0
      *  12 * !              for a more complex building.  Tutorial for EnergyPlus Basics Manual.
 KRDRD  <-3-  KARDI1=   1  KARDI2=  84  KARDX=   1  KRDNUM=  12 mTxtP =     0  mP=     0  mStk=     0
            .2345678.1.2345678.2.2345678.3.2345678.4.2345678.5.2345678.6.2345678.7.2345678.8.2345678.9.2345678.0
            !              for a more complex building.  Tutorial for EnergyPlus Basics Manual. 
 KRDRD  --> kardi1=   1  KARDI2=  84 KARDX=  85  mTxtP=     0  mStk=     0
      *  13 * !
 KRDRD  <-3-  KARDI1=   1  KARDI2=   2  KARDX=   1  KRDNUM=  13 mTxtP =     0  mP=     0  mStk=     0
            .2345678.1.2345678.2.2345678.3.2345678.4.2345678.5.2345678.6.2345678.7.2345678.8.2345678.9.2345678.0
            ! 
 KRDRD  --> kardi1=   1  KARDI2=   2 KARDX=   3  mTxtP=     0  mStk=     0
      *  14 * ! Simulation Location/Run: CHICAGO_IL_USA TMY2-94846, 2 design days, 1 run period,
 KRDRD  <-3-  KARDI1=   1  KARDI2=  83  KARDX=   1  KRDNUM=  14 mTxtP =     0  mP=     0  mStk=     0
            .2345678.1.2345678.2.2345678.3.2345678.4.2345678.5.2345678.6.2345678.7.2345678.8.2345678.9.2345678.0
            ! Simulation Location/Run: CHICAGO_IL_USA TMY2-94846, 2 design days, 1 run period, 
 KRDRD  --> kardi1=   1  KARDI2=  83 KARDX=  84  mTxtP=     0  mStk=     0
      *  15 * !                          Run Control executes the run periods using the weather file
 KRDRD  <-3-  KARDI1=   1  KARDI2=  87  KARDX=   1  KRDNUM=  15 mTxtP =     0  mP=     0  mStk=     0
            .2345678.1.2345678.2.2345678.3.2345678.4.2345678.5.2345678.6.2345678.7.2345678.8.2345678.9.2345678.0
            !                          Run Control executes the run periods using the weather file 
 KRDRD  --> kardi1=   1  KARDI2=  87 KARDX=  88  mTxtP=     0  mStk=     0
      *  16 * !
 KRDRD  <-3-  KARDI1=   1  KARDI2=   2  KARDX=   1  KRDNUM=  16 mTxtP =     0  mP=     0  mStk=     0
            .2345678.1.2345678.2.2345678.3.2345678.4.2345678.5.2345678.6.2345678.7.2345678.8.2345678.9.2345678.0
            ! 
 KRDRD  --> kardi1=   1  KARDI2=   2 KARDX=   3  mTxtP=     0  mStk=     0
      *  17 * ! Location:                Chicago, IL
 KRDRD  <-3-  KARDI1=   1  KARDI2=  39  KARDX=   1  KRDNUM=  17 mTxtP =     0  mP=     0  mStk=     0
            .2345678.1.2345678.2.2345678.3.2345678.4.2345678.5.2345678.6.2345678.7.2345678.8.2345678.9.2345678.0
            ! Location:                Chicago, IL 
 KRDRD  --> kardi1=   1  KARDI2=  39 KARDX=  40  mTxtP=     0  mStk=     0
      *  18 * !
 KRDRD  <-3-  KARDI1=   1  KARDI2=   2  KARDX=   1  KRDNUM=  18 mTxtP =     0  mP=     0  mStk=     0
            .2345678.1.2345678.2.2345678.3.2345678.4.2345678.5.2345678.6.2345678.7.2345678.8.2345678.9.2345678.0
            ! 
 KRDRD  --> kardi1=   1  KARDI2=   2 KARDX=   3  mTxtP=     0  mStk=     0
      *  19 * ! Design Days:             CHICAGO_IL_USA Annual Heating 99% Design Conditions DB, MaxDB= -17.3°C
 KRDRD  <-3-  KARDI1=   1  KARDI2=  98  KARDX=   1  KRDNUM=  19 mTxtP =     0  mP=     0  mStk=     0
            .2345678.1.2345678.2.2345678.3.2345678.4.2345678.5.2345678.6.2345678.7.2345678.8.2345678.9.2345678.0
            ! Design Days:             CHICAGO_IL_USA Annual Heating 99% Design Conditions DB, MaxDB= -17.3°C 
 KRDRD  --> kardi1=   1  KARDI2=  98 KARDX=  99  mTxtP=     0  mStk=     0
      *  20 * !                          CHICAGO_IL_USA Annual Cooling 1% Design Conditions, MaxDB=  31.5°C MCWB=  23.0°C
 KRDRD  <-3-  KARDI1=   1  KARDI2= 108  KARDX=   1  KRDNUM=  20 mTxtP =     0  mP=     0  mStk=     0
            .2345678.1.2345678.2.2345678.3.2345678.4.2345678.5.2345678.6.2345678.7.2345678.8.2345678.9.2345678.0
            !                          CHICAGO_IL_USA Annual Cooling 1% Design Conditions, MaxDB=  31.5°C MCWB= 
             23.0°C 
 KRDRD  --> kardi1=   1  KARDI2= 108 KARDX= 109  mTxtP=     0  mStk=     0
      *  21 * !
 KRDRD  <-3-  KARDI1=   1  KARDI2=   2  KARDX=   1  KRDNUM=  21 mTxtP =     0  mP=     0  mStk=     0
            .2345678.1.2345678.2.2345678.3.2345678.4.2345678.5.2345678.6.2345678.7.2345678.8.2345678.9.2345678.0
            ! 
 KRDRD  --> kardi1=   1  KARDI2=   2 KARDX=   3  mTxtP=     0  mStk=     0
      *  22 * ! Run Period (Weather File): 1/1 through 12/31, CHICAGO_IL_USA TMY2-94846
 KRDRD  <-3-  KARDI1=   1  KARDI2=  74  KARDX=   1  KRDNUM=  22 mTxtP =     0  mP=     0  mStk=     0
            .2345678.1.2345678.2.2345678.3.2345678.4.2345678.5.2345678.6.2345678.7.2345678.8.2345678.9.2345678.0
            ! Run Period (Weather File): 1/1 through 12/31, CHICAGO_IL_USA TMY2-94846 
 KRDRD  --> kardi1=   1  KARDI2=  74 KARDX=  75  mTxtP=     0  mStk=     0
      *  23 * !
 KRDRD  <-3-  KARDI1=   1  KARDI2=   2  KARDX=   1  KRDNUM=  23 mTxtP =     0  mP=     0  mStk=     0
            .2345678.1.2345678.2.2345678.3.2345678.4.2345678.5.2345678.6.2345678.7.2345678.8.2345678.9.2345678.0
            ! 
 KRDRD  --> kardi1=   1  KARDI2=   2 KARDX=   3  mTxtP=     0  mStk=     0
      *  24 * ! Run Control:             Design Days only.
 KRDRD  <-3-  KARDI1=   1  KARDI2=  45  KARDX=   1  KRDNUM=  24 mTxtP =     0  mP=     0  mStk=     0
            .2345678.1.2345678.2.2345678.3.2345678.4.2345678.5.2345678.6.2345678.7.2345678.8.2345678.9.2345678.0
            ! Run Control:             Design Days only. 
 KRDRD  --> kardi1=   1  KARDI2=  45 KARDX=  46  mTxtP=     0  mStk=     0
      *  25 * !
 KRDRD  <-3-  KARDI1=   1  KARDI2=   2  KARDX=   1  KRDNUM=  25 mTxtP =     0  mP=     0  mStk=     0
            .2345678.1.2345678.2.2345678.3.2345678.4.2345678.5.2345678.6.2345678.7.2345678.8.2345678.9.2345678.0
            ! 
 KRDRD  --> kardi1=   1  KARDI2=   2 KARDX=   3  mTxtP=     0  mStk=     0
      *  26 * ! Building: <more details about building.  metric units, if also english enclose in []{} or ()>
 KRDRD  <-3-  KARDI1=   1  KARDI2=  96  KARDX=   1  KRDNUM=  26 mTxtP =     0  mP=     0  mStk=     0
            .2345678.1.2345678.2.2345678.3.2345678.4.2345678.5.2345678.6.2345678.7.2345678.8.2345678.9.2345678.0
            ! Building: <more details about building.  metric units, if also english enclose in []{} or ()> 
 KRDRD  --> kardi1=   1  KARDI2=  96 KARDX=  97  mTxtP=     0  mStk=     0
      *  27 * ! Floor Area:              1250 m2 - Floor and roof are represented as equivalent area (as opposed to following vertices).
 KRDRD  <-3-  KARDI1=   1  KARDI2= 123  KARDX=   1  KRDNUM=  27 mTxtP =     0  mP=     0  mStk=     0
            .2345678.1.2345678.2.2345678.3.2345678.4.2345678.5.2345678.6.2345678.7.2345678.8.2345678.9.2345678.0
            ! Floor Area:              1250 m2 - Floor and roof are represented as equivalent area (as opposed t
            o following vertices). 
 KRDRD  --> kardi1=   1  KARDI2= 123 KARDX= 124  mTxtP=     0  mStk=     0
      *  28 * ! Number of Stories:       1
 KRDRD  <-3-  KARDI1=   1  KARDI2=  29  KARDX=   1  KRDNUM=  28 mTxtP =     0  mP=     0  mStk=     0
            .2345678.1.2345678.2.2345678.3.2345678.4.2345678.5.2345678.6.2345678.7.2345678.8.2345678.9.2345678.0
            ! Number of Stories:       1 
 KRDRD  --> kardi1=   1  KARDI2=  29 KARDX=  30  mTxtP=     0  mStk=     0
      *  29 * !
 KRDRD  <-3-  KARDI1=   1  KARDI2=   2  KARDX=   1  KRDNUM=  29 mTxtP =     0  mP=     0  mStk=     0
            .2345678.1.2345678.2.2345678.3.2345678.4.2345678.5.2345678.6.2345678.7.2345678.8.2345678.9.2345678.0
            ! 
 KRDRD  --> kardi1=   1  KARDI2=   2 KARDX=   3  mTxtP=     0  mStk=     0
      *  30 * ! Zone Description Details:
 KRDRD  <-3-  KARDI1=   1  KARDI2=  28  KARDX=   1  KRDNUM=  30 mTxtP =     0  mP=     0  mStk=     0
            .2345678.1.2345678.2.2345678.3.2345678.4.2345678.5.2345678.6.2345678.7.2345678.8.2345678.9.2345678.0
            ! Zone Description Details: 
 KRDRD  --> kardi1=   1  KARDI2=  28 KARDX=  29  mTxtP=     0  mStk=     0
      *  31 * !                             *******************             ***************
 KRDRD  <-3-  KARDI1=   1  KARDI2=  78  KARDX=   1  KRDNUM=  31 mTxtP =     0  mP=     0  mStk=     0
            .2345678.1.2345678.2.2345678.3.2345678.4.2345678.5.2345678.6.2345678.7.2345678.8.2345678.9.2345678.0
            !                             *******************             *************** 
 KRDRD  --> kardi1=   1  KARDI2=  78 KARDX=  79  mTxtP=     0  mStk=     0
      *  32 * !                             *                 *             *             *
 KRDRD  <-3-  KARDI1=   1  KARDI2=  78  KARDX=   1  KRDNUM=  32 mTxtP =     0  mP=     0  mStk=     0
            .2345678.1.2345678.2.2345678.3.2345678.4.2345678.5.2345678.6.2345678.7.2345678.8.2345678.9.2345678.0
            !                             *                 *             *             * 
 KRDRD  --> kardi1=   1  KARDI2=  78 KARDX=  79  mTxtP=     0  mStk=     0
      *  33 * !                             *                 *             *             *
 KRDRD  <-3-  KARDI1=   1  KARDI2=  78  KARDX=   1  KRDNUM=  33 mTxtP =     0  mP=     0  mStk=     0
            .2345678.1.2345678.2.2345678.3.2345678.4.2345678.5.2345678.6.2345678.7.2345678.8.2345678.9.2345678.0
            !                             *                 *             *             * 
 KRDRD  --> kardi1=   1  KARDI2=  78 KARDX=  79  mTxtP=     0  mStk=     0
      *  34 * !                             *                 *             *             *
 KRDRD  <-3-  KARDI1=   1  KARDI2=  78  KARDX=   1  KRDNUM=  34 mTxtP =     0  mP=     0  mStk=     0
            .2345678.1.2345678.2.2345678.3.2345678.4.2345678.5.2345678.6.2345678.7.2345678.8.2345678.9.2345678.0
            !                             *                 *             *             * 
 KRDRD  --> kardi1=   1  KARDI2=  78 KARDX=  79  mTxtP=     0  mStk=     0
      *  35 * !                             *                 *             *             *
 KRDRD  <-3-  KARDI1=   1  KARDI2=  78  KARDX=   1  KRDNUM=  35 mTxtP =     0  mP=     0  mStk=     0
            .2345678.1.2345678.2.2345678.3.2345678.4.2345678.5.2345678.6.2345678.7.2345678.8.2345678.9.2345678.0
            !                             *                 *             *             * 
 KRDRD  --> kardi1=   1  KARDI2=  78 KARDX=  79  mTxtP=     0  mStk=     0
      *  36 * !                             *                 *             *             *
 KRDRD  <-3-  KARDI1=   1  KARDI2=  78  KARDX=   1  KRDNUM=  36 mTxtP =     0  mP=     0  mStk=     0
            .2345678.1.2345678.2.2345678.3.2345678.4.2345678.5.2345678.6.2345678.7.2345678.8.2345678.9.2345678.0
            !                             *                 *             *             * 
 KRDRD  --> kardi1=   1  KARDI2=  78 KARDX=  79  mTxtP=     0  mStk=     0
      *  37 * !                             *                 *             *             *
 KRDRD  <-3-  KARDI1=   1  KARDI2=  78  KARDX=   1  KRDNUM=  37 mTxtP =     0  mP=     0  mStk=     0
            .2345678.1.2345678.2.2345678.3.2345678.4.2345678.5.2345678.6.2345678.7.2345678.8.2345678.9.2345678.0
            !                             *                 *             *             * 
 KRDRD  --> kardi1=   1  KARDI2=  78 KARDX=  79  mTxtP=     0  mStk=     0
      *  38 * !                             *                 *             *             *
 KRDRD  <-3-  KARDI1=   1  KARDI2=  78  KARDX=   1  KRDNUM=  38 mTxtP =     0  mP=     0  mStk=     0
            .2345678.1.2345678.2.2345678.3.2345678.4.2345678.5.2345678.6.2345678.7.2345678.8.2345678.9.2345678.0
            !                             *                 *             *             * 
 KRDRD  --> kardi1=   1  KARDI2=  78 KARDX=  79  mTxtP=     0  mStk=     0
      *  39 * !                             *                 *             *             *
 KRDRD  <-3-  KARDI1=   1  KARDI2=  78  KARDX=   1  KRDNUM=  39 mTxtP =     0  mP=     0  mStk=     0
            .2345678.1.2345678.2.2345678.3.2345678.4.2345678.5.2345678.6.2345678.7.2345678.8.2345678.9.2345678.0
            !                             *                 *             *             * 
 KRDRD  --> kardi1=   1  KARDI2=  78 KARDX=  79  mTxtP=     0  mStk=     0
      *  40 * !                             *                 *             *             *
 KRDRD  <-3-  KARDI1=   1  KARDI2=  78  KARDX=   1  KRDNUM=  40 mTxtP =     0  mP=     0  mStk=     0
            .2345678.1.2345678.2.2345678.3.2345678.4.2345678.5.2345678.6.2345678.7.2345678.8.2345678.9.2345678.0
            !                             *                 *             *             * 
 KRDRD  --> kardi1=   1  KARDI2=  78 KARDX=  79  mTxtP=     0  mStk=     0
      *  41 * !                             *                 *             *             *
 KRDRD  <-3-  KARDI1=   1  KARDI2=  78  KARDX=   1  KRDNUM=  41 mTxtP =     0  mP=     0  mStk=     0
            .2345678.1.2345678.2.2345678.3.2345678.4.2345678.5.2345678.6.2345678.7.2345678.8.2345678.9.2345678.0
            !                             *                 *             *             * 
 KRDRD  --> kardi1=   1  KARDI2=  78 KARDX=  79  mTxtP=     0  mStk=     0
      *  42 * !                             *                 *             *             *
 KRDRD  <-3-  KARDI1=   1  KARDI2=  78  KARDX=   1  KRDNUM=  42 mTxtP =     0  mP=     0  mStk=     0
            .2345678.1.2345678.2.2345678.3.2345678.4.2345678.5.2345678.6.2345678.7.2345678.8.2345678.9.2345678.0
            !                             *                 *             *             * 
 KRDRD  --> kardi1=   1  KARDI2=  78 KARDX=  79  mTxtP=     0  mStk=     0
      *  43 * !                             *                 *             *             *
 KRDRD  <-3-  KARDI1=   1  KARDI2=  78  KARDX=   1  KRDNUM=  43 mTxtP =     0  mP=     0  mStk=     0
            .2345678.1.2345678.2.2345678.3.2345678.4.2345678.5.2345678.6.2345678.7.2345678.8.2345678.9.2345678.0
            !                             *                 *             *             * 
 KRDRD  --> kardi1=   1  KARDI2=  78 KARDX=  79  mTxtP=     0  mStk=     0
      *  44 * !                             *                 *             *             *
 KRDRD  <-3-  KARDI1=   1  KARDI2=  78  KARDX=   1  KRDNUM=  44 mTxtP =     0  mP=     0  mStk=     0
            .2345678.1.2345678.2.2345678.3.2345678.4.2345678.5.2345678.6.2345678.7.2345678.8.2345678.9.2345678.0
            !                             *                 *             *             * 
 KRDRD  --> kardi1=   1  KARDI2=  78 KARDX=  79  mTxtP=     0  mStk=     0
      *  45 * !                             *                 *      ********             *************
 KRDRD  <-3-  KARDI1=   1  KARDI2=  90  KARDX=   1  KRDNUM=  45 mTxtP =     0  mP=     0  mStk=     0
            .2345678.1.2345678.2.2345678.3.2345678.4.2345678.5.2345678.6.2345678.7.2345678.8.2345678.9.2345678.0
            !                             *                 *      ********             ************* 
 KRDRD  --> kardi1=   1  KARDI2=  90 KARDX=  91  mTxtP=     0  mStk=     0
      *  46 * !                             *                 *      *                                *
 KRDRD  <-3-  KARDI1=   1  KARDI2=  90  KARDX=   1  KRDNUM=  46 mTxtP =     0  mP=     0  mStk=     0
            .2345678.1.2345678.2.2345678.3.2345678.4.2345678.5.2345678.6.2345678.7.2345678.8.2345678.9.2345678.0
            !                             *                 *      *                                * 
 KRDRD  --> kardi1=   1  KARDI2=  90 KARDX=  91  mTxtP=     0  mStk=     0
      *  47 * !                             *                 ********                                *
 KRDRD  <-3-  KARDI1=   1  KARDI2=  90  KARDX=   1  KRDNUM=  47 mTxtP =     0  mP=     0  mStk=     0
            .2345678.1.2345678.2.2345678.3.2345678.4.2345678.5.2345678.6.2345678.7.2345678.8.2345678.9.2345678.0
            !                             *                 ********                                * 
 KRDRD  --> kardi1=   1  KARDI2=  90 KARDX=  91  mTxtP=     0  mStk=     0
      *  48 * !                             *                                                         *
 KRDRD  <-3-  KARDI1=   1  KARDI2=  90  KARDX=   1  KRDNUM=  48 mTxtP =     0  mP=     0  mStk=     0
            .2345678.1.2345678.2.2345678.3.2345678.4.2345678.5.2345678.6.2345678.7.2345678.8.2345678.9.2345678.0
            !                             *                                                         * 
 KRDRD  --> kardi1=   1  KARDI2=  90 KARDX=  91  mTxtP=     0  mStk=     0
      *  49 * !                             *                                                         *
 KRDRD  <-3-  KARDI1=   1  KARDI2=  90  KARDX=   1  KRDNUM=  49 mTxtP =     0  mP=     0  mStk=     0
            .2345678.1.2345678.2.2345678.3.2345678.4.2345678.5.2345678.6.2345678.7.2345678.8.2345678.9.2345678.0
            !                             *                                                         * 
 KRDRD  --> kardi1=   1  KARDI2=  90 KARDX=  91  mTxtP=     0  mStk=     0
      *  50 * !                             *                                                         *
 KRDRD  <-3-  KARDI1=   1  KARDI2=  90  KARDX=   1  KRDNUM=  50 mTxtP =     0  mP=     0  mStk=     0
            .2345678.1.2345678.2.2345678.3.2345678.4.2345678.5.2345678.6.2345678.7.2345678.8.2345678.9.2345678.0
            !                             *                                                         * 
 KRDRD  --> kardi1=   1  KARDI2=  90 KARDX=  91  mTxtP=     0  mStk=     0
      *  51 * !                             *                                                         *
 KRDRD  <-3-  KARDI1=   1  KARDI2=  90  KARDX=   1  KRDNUM=  51 mTxtP =     0  mP=     0  mStk=     0
            .2345678.1.2345678.2.2345678.3.2345678.4.2345678.5.2345678.6.2345678.7.2345678.8.2345678.9.2345678.0
            !                             *                                                         * 
 KRDRD  --> kardi1=   1  KARDI2=  90 KARDX=  91  mTxtP=     0  mStk=     0
      *  52 * !                             *                                                         *
 KRDRD  <-3-  KARDI1=   1  KARDI2=  90  KARDX=   1  KRDNUM=  52 mTxtP =     0  mP=     0  mStk=     0
            .2345678.1.2345678.2.2345678.3.2345678.4.2345678.5.2345678.6.2345678.7.2345678.8.2345678.9.2345678.0
            !                             *                                                         * 
 KRDRD  --> kardi1=   1  KARDI2=  90 KARDX=  91  mTxtP=     0  mStk=     0
      *  53 * !                             *                                                         *
 KRDRD  <-3-  KARDI1=   1  KARDI2=  90  KARDX=   1  KRDNUM=  53 mTxtP =     0  mP=     0  mStk=     0
            .2345678.1.2345678.2.2345678.3.2345678.4.2345678.5.2345678.6.2345678.7.2345678.8.2345678.9.2345678.0
            !                             *                                                         * 
 KRDRD  --> kardi1=   1  KARDI2=  90 KARDX=  91  mTxtP=     0  mStk=     0
      *  54 * !                             *                 *****************************************
 KRDRD  <-3-  KARDI1=   1  KARDI2=  90  KARDX=   1  KRDNUM=  54 mTxtP =     0  mP=     0  mStk=     0
            .2345678.1.2345678.2.2345678.3.2345678.4.2345678.5.2345678.6.2345678.7.2345678.8.2345678.9.2345678.0
            !                             *                 ***************************************** 
 KRDRD  --> kardi1=   1  KARDI2=  90 KARDX=  91  mTxtP=     0  mStk=     0
      *  55 * !                             *                 *
 KRDRD  <-3-  KARDI1=   1  KARDI2=  50  KARDX=   1  KRDNUM=  55 mTxtP =     0  mP=     0  mStk=     0
            .2345678.1.2345678.2.2345678.3.2345678.4.2345678.5.2345678.6.2345678.7.2345678.8.2345678.9.2345678.0
            !                             *                 * 
 KRDRD  --> kardi1=   1  KARDI2=  50 KARDX=  51  mTxtP=     0  mStk=     0
      *  56 * !                             *                 *
 KRDRD  <-3-  KARDI1=   1  KARDI2=  50  KARDX=   1  KRDNUM=  56 mTxtP =     0  mP=     0  mStk=     0
            .2345678.1.2345678.2.2345678.3.2345678.4.2345678.5.2345678.6.2345678.7.2345678.8.2345678.9.2345678.0
            !                             *                 * 
 KRDRD  --> kardi1=   1  KARDI2=  50 KARDX=  51  mTxtP=     0  mStk=     0
      *  57 * !                             *                 *
 KRDRD  <-3-  KARDI1=   1  KARDI2=  50  KARDX=   1  KRDNUM=  57 mTxtP =     0  mP=     0  mStk=     0
            .2345678.1.2345678.2.2345678.3.2345678.4.2345678.5.2345678.6.2345678.7.2345678.8.2345678.9.2345678.0
            !                             *                 * 
 KRDRD  --> kardi1=   1  KARDI2=  50 KARDX=  51  mTxtP=     0  mStk=     0
      *  58 * !                             *******************
 KRDRD  <-3-  KARDI1=   1  KARDI2=  50  KARDX=   1  KRDNUM=  58 mTxtP =     0  mP=     0  mStk=     0
            .2345678.1.2345678.2.2345678.3.2345678.4.2345678.5.2345678.6.2345678.7.2345678.8.2345678.9.2345678.0
            !                             ******************* 
 KRDRD  --> kardi1=   1  KARDI2=  50 KARDX=  51  mTxtP=     0  mStk=     0
      *  59 * !
 KRDRD  <-3-  KARDI1=   1  KARDI2=   2  KARDX=   1  KRDNUM=  59 mTxtP =     0  mP=     0  mStk=     0
            .2345678.1.2345678.2.2345678.3.2345678.4.2345678.5.2345678.6.2345678.7.2345678.8.2345678.9.2345678.0
            ! 
 KRDRD  --> kardi1=   1  KARDI2=   2 KARDX=   3  mTxtP=     0  mStk=     0
      *  60 * ! Internal gains description
 KRDRD  <-3-  KARDI1=   1  KARDI2=  29  KARDX=   1  KRDNUM=  60 mTxtP =     0  mP=     0  mStk=     0
            .2345678.1.2345678.2.2345678.3.2345678.4.2345678.5.2345678.6.2345678.7.2345678.8.2345678.9.2345678.0
            ! Internal gains description 
 KRDRD  --> kardi1=   1  KARDI2=  29 KARDX=  30  mTxtP=     0  mStk=     0
      *  61 * ! Interzone Surfaces           : None
 KRDRD  <-3-  KARDI1=   1  KARDI2=  38  KARDX=   1  KRDNUM=  61 mTxtP =     0  mP=     0  mStk=     0
            .2345678.1.2345678.2.2345678.3.2345678.4.2345678.5.2345678.6.2345678.7.2345678.8.2345678.9.2345678.0
            ! Interzone Surfaces           : None 
 KRDRD  --> kardi1=   1  KARDI2=  38 KARDX=  39  mTxtP=     0  mStk=     0
      *  62 * ! Internal Mass                : Medium Partitions, m2; Heavy/Medium Partitions, m2
 KRDRD  <-3-  KARDI1=   1  KARDI2=  84  KARDX=   1  KRDNUM=  62 mTxtP =     0  mP=     0  mStk=     0
            .2345678.1.2345678.2.2345678.3.2345678.4.2345678.5.2345678.6.2345678.7.2345678.8.2345678.9.2345678.0
            ! Internal Mass                : Medium Partitions, m2; Heavy/Medium Partitions, m2 
 KRDRD  --> kardi1=   1  KARDI2=  84 KARDX=  85  mTxtP=     0  mStk=     0
      *  63 * ! People                       : 205 with a Office Occupancy
 KRDRD  <-3-  KARDI1=   1  KARDI2=  61  KARDX=   1  KRDNUM=  63 mTxtP =     0  mP=     0  mStk=     0
            .2345678.1.2345678.2.2345678.3.2345678.4.2345678.5.2345678.6.2345678.7.2345678.8.2345678.9.2345678.0
            ! People                       : 205 with a Office Occupancy 
 KRDRD  --> kardi1=   1  KARDI2=  61 KARDX=  62  mTxtP=     0  mStk=     0
      *  64 * ! Lights                       : 21.1 W/m2
 KRDRD  <-3-  KARDI1=   1  KARDI2=  43  KARDX=   1  KRDNUM=  64 mTxtP =     0  mP=     0  mStk=     0
            .2345678.1.2345678.2.2345678.3.2345678.4.2345678.5.2345678.6.2345678.7.2345678.8.2345678.9.2345678.0
            ! Lights                       : 21.1 W/m2 
 KRDRD  --> kardi1=   1  KARDI2=  43 KARDX=  44  mTxtP=     0  mStk=     0
      *  65 * ! Windows                      : Double Pane Windows
 KRDRD  <-3-  KARDI1=   1  KARDI2=  53  KARDX=   1  KRDNUM=  65 mTxtP =     0  mP=     0  mStk=     0
            .2345678.1.2345678.2.2345678.3.2345678.4.2345678.5.2345678.6.2345678.7.2345678.8.2345678.9.2345678.0
            ! Windows                      : Double Pane Windows 
 KRDRD  --> kardi1=   1  KARDI2=  53 KARDX=  54  mTxtP=     0  mStk=     0
      *  66 * ! Detached Shading             : None
 KRDRD  <-3-  KARDI1=   1  KARDI2=  38  KARDX=   1  KRDNUM=  66 mTxtP =     0  mP=     0  mStk=     0
            .2345678.1.2345678.2.2345678.3.2345678.4.2345678.5.2345678.6.2345678.7.2345678.8.2345678.9.2345678.0
            ! Detached Shading             : None 
 KRDRD  --> kardi1=   1  KARDI2=  38 KARDX=  39  mTxtP=     0  mStk=     0
      *  67 * ! Daylight                     : None
 KRDRD  <-3-  KARDI1=   1  KARDI2=  38  KARDX=   1  KRDNUM=  67 mTxtP =     0  mP=     0  mStk=     0
            .2345678.1.2345678.2.2345678.3.2345678.4.2345678.5.2345678.6.2345678.7.2345678.8.2345678.9.2345678.0
            ! Daylight                     : None 
 KRDRD  --> kardi1=   1  KARDI2=  38 KARDX=  39  mTxtP=     0  mStk=     0
      *  68 * ! Natural Ventilation          : Infiltration only.
 KRDRD  <-3-  KARDI1=   1  KARDI2=  52  KARDX=   1  KRDNUM=  68 mTxtP =     0  mP=     0  mStk=     0
            .2345678.1.2345678.2.2345678.3.2345678.4.2345678.5.2345678.6.2345678.7.2345678.8.2345678.9.2345678.0
            ! Natural Ventilation          : Infiltration only. 
 KRDRD  --> kardi1=   1  KARDI2=  52 KARDX=  53  mTxtP=     0  mStk=     0
      *  69 * ! Compact Schedules (preferred): Yes
 KRDRD  <-3-  KARDI1=   1  KARDI2=  37  KARDX=   1  KRDNUM=  69 mTxtP =     0  mP=     0  mStk=     0