!-Generator IDFEditor 1.50
!-Option OriginalOrderTop UseSpecialFormat
!-NOTE: All comments with '!-' are ignored by the IDFEditor and are generated automatically.
!-      Use '!' comments if they need to be retained when using the IDFEditor.

  Version,8.9;

  SimulationControl,
    Yes,                     !- Do Zone Sizing Calculation
    Yes,                     !- Do System Sizing Calculation
    No,                      !- Do Plant Sizing Calculation
    No,                      !- Run Simulation for Sizing Periods
    Yes;                     !- Run Simulation for Weather File Run Periods

  Building,
    Building,                !- Name
    92.0,                    !- North Axis {deg}
    City,                    !- Terrain
    0.04,                    !- Loads Convergence Tolerance Value
    0.4,                     !- Temperature Convergence Tolerance Value {deltaC}
    FullExteriorWithReflections,  !- Solar Distribution
    25,                      !- Maximum Number of Warmup Days
    6;                       !- Minimum Number of Warmup Days

  ShadowCalculation,
    AverageOverDaysInFrequency,  !- Calculation Method
    20,                      !- Calculation Frequency
    15000,                   !- Maximum Figures in Shadow Overlap Calculations
    SutherlandHodgman,       !- Polygon Clipping Algorithm
    SimpleSkyDiffuseModeling,!- Sky Diffuse Modeling Algorithm
    InternalCalculation;     !- External Shading Calculation Method

  SurfaceConvectionAlgorithm:Inside,CeilingDiffuser;

  SurfaceConvectionAlgorithm:Outside,DOE-2;

  HeatBalanceAlgorithm,ConductionFiniteDifference,2000.0,0.00000001,1000;

  ZoneCapacitanceMultiplier:ResearchSpecial,
    Multiplier,              !- Name
    ,                        !- Zone or ZoneList Name
    1.0,                     !- Temperature Capacity Multiplier
    1.0,                     !- Humidity Capacity Multiplier
    1.0,                     !- Carbon Dioxide Capacity Multiplier
    1.0;                     !- Generic Contaminant Capacity Multiplier

  Timestep,6;

  ConvergenceLimits,
    1,                       !- Minimum System Timestep {minutes}
    25;                      !- Maximum HVAC Iterations

  Site:Location,
    Inovo TEST (01-05:20-06)  (01-05:20-06),  !- Name
    55.87,                   !- Latitude {deg}
    -4.43,                   !- Longitude {deg}
    0.0,                     !- Time Zone {hr}
    8.0;                     !- Elevation {m}

  SizingPeriod:DesignDay,
    Summer Design Day in Inovo TEST (01-05:20-06) Jul,  !- Name
    7,                       !- Month
    15,                      !- Day of Month
    SummerDesignDay,         !- Day Type
    23.1,                    !- Maximum Dry-Bulb Temperature {C}
    7.7,                     !- Daily Dry-Bulb Temperature Range {deltaC}
    ,                        !- Dry-Bulb Temperature Range Modifier Type
    ,                        !- Dry-Bulb Temperature Range Modifier Day Schedule Name
    WetBulb,                 !- Humidity Condition Type
    17.1,                    !- Wetbulb or DewPoint at Maximum Dry-Bulb {C}
    ,                        !- Humidity Condition Day Schedule Name
    ,                        !- Humidity Ratio at Maximum Dry-Bulb {kgWater/kgDryAir}
    ,                        !- Enthalpy at Maximum Dry-Bulb {J/kg}
    ,                        !- Daily Wet-Bulb Temperature Range {deltaC}
    101228.9,                !- Barometric Pressure {Pa}
    0.0,                     !- Wind Speed {m/s}
    0.0,                     !- Wind Direction {deg}
    No,                      !- Rain Indicator
    No,                      !- Snow Indicator
    Yes,                     !- Daylight Saving Time Indicator
    ASHRAEClearSky,          !- Solar Model Indicator
    ,                        !- Beam Solar Day Schedule Name
    ,                        !- Diffuse Solar Day Schedule Name
    ,                        !- ASHRAE Clear Sky Optical Depth for Beam Irradiance (taub) {dimensionless}
    ,                        !- ASHRAE Clear Sky Optical Depth for Diffuse Irradiance (taud) {dimensionless}
    0.98;                    !- Sky Clearness

  SizingPeriod:DesignDay,
    Winter Design Day in Inovo TEST (01-05:20-06),  !- Name
    1,                       !- Month
    15,                      !- Day of Month
    WinterDesignDay,         !- Day Type
    -6.1,                    !- Maximum Dry-Bulb Temperature {C}
    0.0,                     !- Daily Dry-Bulb Temperature Range {deltaC}
    ,                        !- Dry-Bulb Temperature Range Modifier Type
    ,                        !- Dry-Bulb Temperature Range Modifier Day Schedule Name
    WetBulb,                 !- Humidity Condition Type
    -6.1,                    !- Wetbulb or DewPoint at Maximum Dry-Bulb {C}
    ,                        !- Humidity Condition Day Schedule Name
    ,                        !- Humidity Ratio at Maximum Dry-Bulb {kgWater/kgDryAir}
    ,                        !- Enthalpy at Maximum Dry-Bulb {J/kg}
    ,                        !- Daily Wet-Bulb Temperature Range {deltaC}
    101228.9,                !- Barometric Pressure {Pa}
    14.5,                    !- Wind Speed {m/s}
    0.0,                     !- Wind Direction {deg}
    No,                      !- Rain Indicator
    No,                      !- Snow Indicator
    No,                      !- Daylight Saving Time Indicator
    ,                        !- Solar Model Indicator
    ,                        !- Beam Solar Day Schedule Name
    ,                        !- Diffuse Solar Day Schedule Name
    ,                        !- ASHRAE Clear Sky Optical Depth for Beam Irradiance (taub) {dimensionless}
    ,                        !- ASHRAE Clear Sky Optical Depth for Diffuse Irradiance (taud) {dimensionless}
    0.0;                     !- Sky Clearness

  RunPeriod,
    Inovo TEST (01-05:20-06),!- Name
    5,                       !- Begin Month
    15,                      !- Begin Day of Month
    6,                       !- End Month
    19,                      !- End Day of Month
    UseWeatherFile,          !- Day of Week for Start Day
    No,                      !- Use Weather File Holidays and Special Days
    No,                      !- Use Weather File Daylight Saving Period
    Yes,                     !- Apply Weekend Holiday Rule
    Yes,                     !- Use Weather File Rain Indicators
    Yes,                     !- Use Weather File Snow Indicators
    1;                       !- Number of Times Runperiod to be Repeated

  RunPeriodControl:SpecialDays,
    New Years Day,           !- Name
    1 Jan,                   !- Start Date
    1,                       !- Duration {days}
    Holiday;                 !- Special Day Type

  RunPeriodControl:SpecialDays,
    Christmas Day,           !- Name
    25 Dec,                  !- Start Date
    1,                       !- Duration {days}
    Holiday;                 !- Special Day Type

  RunPeriodControl:SpecialDays,
    Boxing Day,              !- Name
    26 Dec,                  !- Start Date
    1,                       !- Duration {days}
    Holiday;                 !- Special Day Type

  RunPeriodControl:SpecialDays,
    Easter Monday,           !- Name
    2nd Monday in April,     !- Start Date
    1,                       !- Duration {days}
    Holiday;                 !- Special Day Type

  RunPeriodControl:SpecialDays,
    Easter Sunday,           !- Name
    1st Sunday in April,     !- Start Date
    1,                       !- Duration {days}
    Holiday;                 !- Special Day Type

  RunPeriodControl:DaylightSavingTime,
    Last Sunday in March,    !- Start Date
    Last Sunday in October;  !- End Date

  Site:GroundTemperature:BuildingSurface,18.0,18.0,18.0,18.0,18.0,18.0,18.0,18.0,18.0,18.0,18.0,18.0;

  Site:GroundTemperature:FCfactorMethod,5.14,7.21,9.59,11.37,13.85,14.37,13.53,11.51,8.87,6.43,4.69,4.23;

  Site:GroundTemperature:Shallow,14.0,14.0,14.0,14.0,14.0,14.0,14.0,14.0,14.0,14.0,14.0,14.0;

  Site:GroundTemperature:Deep,14.0,14.0,14.0,14.0,14.0,14.0,14.0,14.0,14.0,14.0,14.0,14.0;

  Site:GroundReflectance,0.2,0.2,0.2,0.2,0.2,0.2,0.2,0.2,0.2,0.2,0.2,0.2;

  Site:GroundReflectance:SnowModifier,
    2.0,                     !- Ground Reflected Solar Modifier
    2.0;                     !- Daylighting Ground Reflected Solar Modifier

  ScheduleTypeLimits,
    Any Number;              !- Name

  ScheduleTypeLimits,
    Fraction,                !- Name
    0.0,                     !- Lower Limit Value
    1.0,                     !- Upper Limit Value
    CONTINUOUS;              !- Numeric Type

  ScheduleTypeLimits,
    Temperature,             !- Name
    -60,                     !- Lower Limit Value
    200,                     !- Upper Limit Value
    CONTINUOUS;              !- Numeric Type

  ScheduleTypeLimits,
    Control Type,            !- Name
    0,                       !- Lower Limit Value
    4,                       !- Upper Limit Value
    DISCRETE;                !- Numeric Type

  ScheduleTypeLimits,
    On/Off,                  !- Name
    0,                       !- Lower Limit Value
    1,                       !- Upper Limit Value
    DISCRETE;                !- Numeric Type

  Schedule:Day:Hourly,
    0,                       !- Name
    Any Number,              !- Schedule Type Limits Name
    0.0,                     !- Hour 1
    0.0,                     !- Hour 2
    0.0,                     !- Hour 3
    0.0,                     !- Hour 4
    0.0,                     !- Hour 5
    0.0,                     !- Hour 6
    0.0,                     !- Hour 7
    0.0,                     !- Hour 8
    0.0,                     !- Hour 9
    0.0,                     !- Hour 10
    0.0,                     !- Hour 11
    0.0,                     !- Hour 12
    0.0,                     !- Hour 13
    0.0,                     !- Hour 14
    0.0,                     !- Hour 15
    0.0,                     !- Hour 16
    0.0,                     !- Hour 17
    0.0,                     !- Hour 18
    0.0,                     !- Hour 19
    0.0,                     !- Hour 20
    0.0,                     !- Hour 21
    0.0,                     !- Hour 22
    0.0,                     !- Hour 23
    0.0;                     !- Hour 24

  Schedule:Day:Hourly,
    50,                      !- Name
    Any Number,              !- Schedule Type Limits Name
    50.0,                    !- Hour 1
    50.0,                    !- Hour 2
    50.0,                    !- Hour 3
    50.0,                    !- Hour 4
    50.0,                    !- Hour 5
    50.0,                    !- Hour 6
    50.0,                    !- Hour 7
    50.0,                    !- Hour 8
    50.0,                    !- Hour 9
    50.0,                    !- Hour 10
    50.0,                    !- Hour 11
    50.0,                    !- Hour 12
    50.0,                    !- Hour 13
    50.0,                    !- Hour 14
    50.0,                    !- Hour 15
    50.0,                    !- Hour 16
    50.0,                    !- Hour 17
    50.0,                    !- Hour 18
    50.0,                    !- Hour 19
    50.0,                    !- Hour 20
    50.0,                    !- Hour 21
    50.0,                    !- Hour 22
    50.0,                    !- Hour 23
    50.0;                    !- Hour 24

  Schedule:Day:Hourly,
    Off,                     !- Name
    Fraction,                !- Schedule Type Limits Name
    0.0,                     !- Hour 1
    0.0,                     !- Hour 2
    0.0,                     !- Hour 3
    0.0,                     !- Hour 4
    0.0,                     !- Hour 5
    0.0,                     !- Hour 6
    0.0,                     !- Hour 7
    0.0,                     !- Hour 8
    0.0,                     !- Hour 9
    0.0,                     !- Hour 10
    0.0,                     !- Hour 11
    0.0,                     !- Hour 12
    0.0,                     !- Hour 13
    0.0,                     !- Hour 14
    0.0,                     !- Hour 15
    0.0,                     !- Hour 16
    0.0,                     !- Hour 17
    0.0,                     !- Hour 18
    0.0,                     !- Hour 19
    0.0,                     !- Hour 20
    0.0,                     !- Hour 21
    0.0,                     !- Hour 22
    0.0,                     !- Hour 23
    0.0;                     !- Hour 24

  Schedule:Day:Hourly,
    Summer Control Type Day Sch,  !- Name
    Control Type,            !- Schedule Type Limits Name
    4.0,                     !- Hour 1
    4.0,                     !- Hour 2
    4.0,                     !- Hour 3
    4.0,                     !- Hour 4
    4.0,                     !- Hour 5
    4.0,                     !- Hour 6
    4.0,                     !- Hour 7
    4.0,                     !- Hour 8
    4.0,                     !- Hour 9
    4.0,                     !- Hour 10
    4.0,                     !- Hour 11
    4.0,                     !- Hour 12
    4.0,                     !- Hour 13
    4.0,                     !- Hour 14
    4.0,                     !- Hour 15
    4.0,                     !- Hour 16
    4.0,                     !- Hour 17
    4.0,                     !- Hour 18
    4.0,                     !- Hour 19
    4.0,                     !- Hour 20
    4.0,                     !- Hour 21
    4.0,                     !- Hour 22
    4.0,                     !- Hour 23
    4.0;                     !- Hour 24

  Schedule:Day:Hourly,
    Winter Control Type Day Sch,  !- Name
    Control Type,            !- Schedule Type Limits Name
    4.0,                     !- Hour 1
    4.0,                     !- Hour 2
    4.0,                     !- Hour 3
    4.0,                     !- Hour 4
    4.0,                     !- Hour 5
    4.0,                     !- Hour 6
    4.0,                     !- Hour 7
    4.0,                     !- Hour 8
    4.0,                     !- Hour 9
    4.0,                     !- Hour 10
    4.0,                     !- Hour 11
    4.0,                     !- Hour 12
    4.0,                     !- Hour 13
    4.0,                     !- Hour 14
    4.0,                     !- Hour 15
    4.0,                     !- Hour 16
    4.0,                     !- Hour 17
    4.0,                     !- Hour 18
    4.0,                     !- Hour 19
    4.0,                     !- Hour 20
    4.0,                     !- Hour 21
    4.0,                     !- Hour 22
    4.0,                     !- Hour 23
    4.0;                     !- Hour 24

  Schedule:Day:Hourly,
    Summer Control Type Day Sch - cool,  !- Name
    Control Type,            !- Schedule Type Limits Name
    2.0,                     !- Hour 1
    2.0,                     !- Hour 2
    2.0,                     !- Hour 3
    2.0,                     !- Hour 4
    2.0,                     !- Hour 5
    2.0,                     !- Hour 6
    2.0,                     !- Hour 7
    2.0,                     !- Hour 8
    2.0,                     !- Hour 9
    2.0,                     !- Hour 10
    2.0,                     !- Hour 11
    2.0,                     !- Hour 12
    2.0,                     !- Hour 13
    2.0,                     !- Hour 14
    2.0,                     !- Hour 15
    2.0,                     !- Hour 16
    2.0,                     !- Hour 17
    2.0,                     !- Hour 18
    2.0,                     !- Hour 19
    2.0,                     !- Hour 20
    2.0,                     !- Hour 21
    2.0,                     !- Hour 22
    2.0,                     !- Hour 23
    2.0;                     !- Hour 24

  Schedule:Day:Hourly,
    Winter Control Type Day Sch - heat,  !- Name
    Control Type,            !- Schedule Type Limits Name
    1.0,                     !- Hour 1
    1.0,                     !- Hour 2
    1.0,                     !- Hour 3
    1.0,                     !- Hour 4
    1.0,                     !- Hour 5
    1.0,                     !- Hour 6
    1.0,                     !- Hour 7
    1.0,                     !- Hour 8
    1.0,                     !- Hour 9
    1.0,                     !- Hour 10
    1.0,                     !- Hour 11
    1.0,                     !- Hour 12
    1.0,                     !- Hour 13
    1.0,                     !- Hour 14
    1.0,                     !- Hour 15
    1.0,                     !- Hour 16
    1.0,                     !- Hour 17
    1.0,                     !- Hour 18
    1.0,                     !- Hour 19
    1.0,                     !- Hour 20
    1.0,                     !- Hour 21
    1.0,                     !- Hour 22
    1.0,                     !- Hour 23
    1.0;                     !- Hour 24

  Schedule:Day:Interval,
    11_-50_-50_0,            !- Name
    Any number,              !- Schedule Type Limits Name
    No,                      !- Interpolate to Timestep
    24:00,                   !- Time 1
    -50;                     !- Value Until Time 1

  Schedule:Day:Interval,
    11_0_1_1,                !- Name
    Any number,              !- Schedule Type Limits Name
    No,                      !- Interpolate to Timestep
    24:00,                   !- Time 1
    0;                       !- Value Until Time 1

  Schedule:Day:Interval,
    11_100_30_30,            !- Name
    Any number,              !- Schedule Type Limits Name
    No,                      !- Interpolate to Timestep
    24:00,                   !- Time 1
    100;                     !- Value Until Time 1

  Schedule:Day:List,
    1_-50_-50_0,             !- Name
    Any number,              !- Schedule Type Limits Name
    No,                      !- Interpolate to Timestep
    60,                      !- Minutes per Item
    -50,                     !- Value 1
    -50,                     !- <none>
    -50,                     !- <none>
    -50,                     !- <none>
    -50,                     !- <none>
    -50,                     !- <none>
    -50,                     !- <none>
    -50,                     !- <none>
    0,                       !- <none>
    0,                       !- <none>
    0,                       !- <none>
    0,                       !- <none>
    0,                       !- <none>
    0,                       !- <none>
    0,                       !- <none>
    0,                       !- <none>
    0,                       !- <none>
    0,                       !- <none>
    -50,                     !- <none>
    -50,                     !- <none>
    -50,                     !- <none>
    -50,                     !- <none>
    -50,                     !- <none>
    -50;                     !- <none>

  Schedule:Day:List,
    1_0_1_1,                 !- Name
    Any number,              !- Schedule Type Limits Name
    No,                      !- Interpolate to Timestep
    60,                      !- Minutes per Item
    0,                       !- Value 1
    0,                       !- <none>
    0,                       !- <none>
    0,                       !- <none>
    0,                       !- <none>
    0,                       !- <none>
    0,                       !- <none>
    0,                       !- <none>
    1,                       !- <none>
    1,                       !- <none>
    1,                       !- <none>
    1,                       !- <none>
    1,                       !- <none>
    1,                       !- <none>
    1,                       !- <none>
    1,                       !- <none>
    1,                       !- <none>
    1,                       !- <none>
    0,                       !- <none>
    0,                       !- <none>
    0,                       !- <none>
    0,                       !- <none>
    0,                       !- <none>
    0;                       !- <none>

  Schedule:Day:List,
    1_100_30_30,             !- Name
    Any number,              !- Schedule Type Limits Name
    No,                      !- Interpolate to Timestep
    60,                      !- Minutes per Item
    100,                     !- Value 1
    100,                     !- <none>
    100,                     !- <none>
    100,                     !- <none>
    100,                     !- <none>
    100,                     !- <none>
    100,                     !- <none>
    100,                     !- <none>
    30,                      !- <none>
    30,                      !- <none>
    30,                      !- <none>
    30,                      !- <none>
    30,                      !- <none>
    30,                      !- <none>
    30,                      !- <none>
    30,                      !- <none>
    30,                      !- <none>
    30,                      !- <none>
    100,                     !- <none>
    100,                     !- <none>
    100,                     !- <none>
    100,                     !- <none>
    100,                     !- <none>
    100;                     !- <none>

  Schedule:Week:Daily,
    Off,                     !- Name
    Off,                     !- Sunday Schedule:Day Name
    Off,                     !- Monday Schedule:Day Name
    Off,                     !- Tuesday Schedule:Day Name
    Off,                     !- Wednesday Schedule:Day Name
    Off,                     !- Thursday Schedule:Day Name
    Off,                     !- Friday Schedule:Day Name
    Off,                     !- Saturday Schedule:Day Name
    Off,                     !- Holiday Schedule:Day Name
    Off,                     !- SummerDesignDay Schedule:Day Name
    Off,                     !- WinterDesignDay Schedule:Day Name
    Off,                     !- CustomDay1 Schedule:Day Name
    Off;                     !- CustomDay2 Schedule:Day Name

  Schedule:Week:Daily,
    Summer Control Type Week Sch,  !- Name
    Summer Control Type Day Sch,  !- Sunday Schedule:Day Name
    Summer Control Type Day Sch,  !- Monday Schedule:Day Name
    Summer Control Type Day Sch,  !- Tuesday Schedule:Day Name
    Summer Control Type Day Sch,  !- Wednesday Schedule:Day Name
    Summer Control Type Day Sch,  !- Thursday Schedule:Day Name
    Summer Control Type Day Sch,  !- Friday Schedule:Day Name
    Summer Control Type Day Sch,  !- Saturday Schedule:Day Name
    Summer Control Type Day Sch,  !- Holiday Schedule:Day Name
    Summer Control Type Day Sch,  !- SummerDesignDay Schedule:Day Name
    Summer Control Type Day Sch,  !- WinterDesignDay Schedule:Day Name
    Summer Control Type Day Sch,  !- CustomDay1 Schedule:Day Name
    Summer Control Type Day Sch;  !- CustomDay2 Schedule:Day Name

  Schedule:Week:Daily,
    Winter Control Type Week Sch,  !- Name
    Winter Control Type Day Sch,  !- Sunday Schedule:Day Name
    Winter Control Type Day Sch,  !- Monday Schedule:Day Name
    Winter Control Type Day Sch,  !- Tuesday Schedule:Day Name
    Winter Control Type Day Sch,  !- Wednesday Schedule:Day Name
    Winter Control Type Day Sch,  !- Thursday Schedule:Day Name
    Winter Control Type Day Sch,  !- Friday Schedule:Day Name
    Winter Control Type Day Sch,  !- Saturday Schedule:Day Name
    Winter Control Type Day Sch,  !- Holiday Schedule:Day Name
    Winter Control Type Day Sch,  !- SummerDesignDay Schedule:Day Name
    Winter Control Type Day Sch,  !- WinterDesignDay Schedule:Day Name
    Winter Control Type Day Sch,  !- CustomDay1 Schedule:Day Name
    Winter Control Type Day Sch;  !- CustomDay2 Schedule:Day Name

  Schedule:Week:Daily,
    Summer Control Type Week Sch - cool,  !- Name
    Summer Control Type Day Sch - cool,  !- Sunday Schedule:Day Name
    Summer Control Type Day Sch - cool,  !- Monday Schedule:Day Name
    Summer Control Type Day Sch - cool,  !- Tuesday Schedule:Day Name
    Summer Control Type Day Sch - cool,  !- Wednesday Schedule:Day Name
    Summer Control Type Day Sch - cool,  !- Thursday Schedule:Day Name
    Summer Control Type Day Sch - cool,  !- Friday Schedule:Day Name
    Summer Control Type Day Sch - cool,  !- Saturday Schedule:Day Name
    Summer Control Type Day Sch - cool,  !- Holiday Schedule:Day Name
    Summer Control Type Day Sch - cool,  !- SummerDesignDay Schedule:Day Name
    Summer Control Type Day Sch - cool,  !- WinterDesignDay Schedule:Day Name
    Summer Control Type Day Sch - cool,  !- CustomDay1 Schedule:Day Name
    Summer Control Type Day Sch - cool;  !- CustomDay2 Schedule:Day Name

  Schedule:Week:Daily,
    Winter Control Type Week Sch - heat,  !- Name
    Winter Control Type Day Sch - heat,  !- Sunday Schedule:Day Name
    Winter Control Type Day Sch - heat,  !- Monday Schedule:Day Name
    Winter Control Type Day Sch - heat,  !- Tuesday Schedule:Day Name
    Winter Control Type Day Sch - heat,  !- Wednesday Schedule:Day Name
    Winter Control Type Day Sch - heat,  !- Thursday Schedule:Day Name
    Winter Control Type Day Sch - heat,  !- Friday Schedule:Day Name
    Winter Control Type Day Sch - heat,  !- Saturday Schedule:Day Name
    Winter Control Type Day Sch - heat,  !- Holiday Schedule:Day Name
    Winter Control Type Day Sch - heat,  !- SummerDesignDay Schedule:Day Name
    Winter Control Type Day Sch - heat,  !- WinterDesignDay Schedule:Day Name
    Winter Control Type Day Sch - heat,  !- CustomDay1 Schedule:Day Name
    Winter Control Type Day Sch - heat;  !- CustomDay2 Schedule:Day Name

  Schedule:Week:Daily,
    02Plenum:Void Heating Setpoint Schedule_Jan,  !- Name
    11_-50_-50_0,            !- Sunday Schedule:Day Name
    1_-50_-50_0,             !- Monday Schedule:Day Name
    1_-50_-50_0,             !- Tuesday Schedule:Day Name
    1_-50_-50_0,             !- Wednesday Schedule:Day Name
    1_-50_-50_0,             !- Thursday Schedule:Day Name
    1_-50_-50_0,             !- Friday Schedule:Day Name
    1_-50_-50_0,             !- Saturday Schedule:Day Name
    11_-50_-50_0,            !- Holiday Schedule:Day Name
    1_-50_-50_0,             !- SummerDesignDay Schedule:Day Name
    11_-50_-50_0,            !- WinterDesignDay Schedule:Day Name
    1_-50_-50_0,             !- CustomDay1 Schedule:Day Name
    1_-50_-50_0;             !- CustomDay2 Schedule:Day Name

  Schedule:Week:Daily,
    02Plenum:Void Heating Setpoint Schedule_Feb,  !- Name
    11_-50_-50_0,            !- Sunday Schedule:Day Name
    1_-50_-50_0,             !- Monday Schedule:Day Name
    1_-50_-50_0,             !- Tuesday Schedule:Day Name
    1_-50_-50_0,             !- Wednesday Schedule:Day Name
    1_-50_-50_0,             !- Thursday Schedule:Day Name
    1_-50_-50_0,             !- Friday Schedule:Day Name
    1_-50_-50_0,             !- Saturday Schedule:Day Name
    11_-50_-50_0,            !- Holiday Schedule:Day Name
    1_-50_-50_0,             !- SummerDesignDay Schedule:Day Name
    11_-50_-50_0,            !- WinterDesignDay Schedule:Day Name
    1_-50_-50_0,             !- CustomDay1 Schedule:Day Name
    1_-50_-50_0;             !- CustomDay2 Schedule:Day Name

  Schedule:Week:Daily,
    02Plenum:Void Heating Setpoint Schedule_Mar,  !- Name
    11_-50_-50_0,            !- Sunday Schedule:Day Name
    1_-50_-50_0,             !- Monday Schedule:Day Name
    1_-50_-50_0,             !- Tuesday Schedule:Day Name
    1_-50_-50_0,             !- Wednesday Schedule:Day Name
    1_-50_-50_0,             !- Thursday Schedule:Day Name
    1_-50_-50_0,             !- Friday Schedule:Day Name
    1_-50_-50_0,             !- Saturday Schedule:Day Name
    11_-50_-50_0,            !- Holiday Schedule:Day Name
    1_-50_-50_0,             !- SummerDesignDay Schedule:Day Name
    11_-50_-50_0,            !- WinterDesignDay Schedule:Day Name
    1_-50_-50_0,             !- CustomDay1 Schedule:Day Name
    1_-50_-50_0;             !- CustomDay2 Schedule:Day Name

  Schedule:Week:Daily,
    02Plenum:Void Heating Setpoint Schedule_Apr,  !- Name
    11_-50_-50_0,            !- Sunday Schedule:Day Name
    1_-50_-50_0,             !- Monday Schedule:Day Name
    1_-50_-50_0,             !- Tuesday Schedule:Day Name
    1_-50_-50_0,             !- Wednesday Schedule:Day Name
    1_-50_-50_0,             !- Thursday Schedule:Day Name
    1_-50_-50_0,             !- Friday Schedule:Day Name
    1_-50_-50_0,             !- Saturday Schedule:Day Name
    11_-50_-50_0,            !- Holiday Schedule:Day Name
    1_-50_-50_0,             !- SummerDesignDay Schedule:Day Name
    11_-50_-50_0,            !- WinterDesignDay Schedule:Day Name
    1_-50_-50_0,             !- CustomDay1 Schedule:Day Name
    1_-50_-50_0;             !- CustomDay2 Schedule:Day Name

  Schedule:Week:Daily,
    02Plenum:Void Heating Setpoint Schedule_May,  !- Name
    11_-50_-50_0,            !- Sunday Schedule:Day Name
    1_-50_-50_0,             !- Monday Schedule:Day Name
    1_-50_-50_0,             !- Tuesday Schedule:Day Name
    1_-50_-50_0,             !- Wednesday Schedule:Day Name
    1_-50_-50_0,             !- Thursday Schedule:Day Name
    1_-50_-50_0,             !- Friday Schedule:Day Name
    1_-50_-50_0,             !- Saturday Schedule:Day Name
    11_-50_-50_0,            !- Holiday Schedule:Day Name
    1_-50_-50_0,             !- SummerDesignDay Schedule:Day Name
    11_-50_-50_0,            !- WinterDesignDay Schedule:Day Name
    1_-50_-50_0,             !- CustomDay1 Schedule:Day Name
    1_-50_-50_0;             !- CustomDay2 Schedule:Day Name

  Schedule:Week:Daily,
    02Plenum:Void Heating Setpoint Schedule_Jun,  !- Name
    11_-50_-50_0,            !- Sunday Schedule:Day Name
    1_-50_-50_0,             !- Monday Schedule:Day Name
    1_-50_-50_0,             !- Tuesday Schedule:Day Name
    1_-50_-50_0,             !- Wednesday Schedule:Day Name
    1_-50_-50_0,             !- Thursday Schedule:Day Name
    1_-50_-50_0,             !- Friday Schedule:Day Name
    1_-50_-50_0,             !- Saturday Schedule:Day Name
    11_-50_-50_0,            !- Holiday Schedule:Day Name